
---------- Begin Simulation Statistics ----------
final_tick                                 1077288800                       # Number of ticks from beginning of simulation (restored from checkpoints and never reset)
host_inst_rate                                 158992                       # Simulator instruction rate (inst/s)
host_mem_usage                                4402732                       # Number of bytes of host memory used
host_op_rate                                   276324                       # Simulator op (including micro ops) rate (op/s)
host_seconds                                    12.75                       # Real time elapsed on the host
host_tick_rate                               84479513                       # Simulator tick rate (ticks/s)
sim_freq                                 1000000000000                       # Frequency of simulated ticks
sim_insts                                     2027464                       # Number of instructions simulated
sim_ops                                       3523696                       # Number of ops (including micro ops) simulated
sim_seconds                                  0.001077                       # Number of seconds simulated
sim_ticks                                  1077288800                       # Number of ticks simulated
system.cpu.branchPred.BTBCorrect                    0                       # Number of correct BTB predictions (this stat may not work properly.
system.cpu.branchPred.BTBHitPct              0.000000                       # BTB Hit Percentage
system.cpu.branchPred.BTBHits                       0                       # Number of BTB hits
system.cpu.branchPred.BTBLookups               423880                       # Number of BTB lookups
system.cpu.branchPred.RASInCorrect                  6                       # Number of incorrect RAS predictions.
system.cpu.branchPred.condIncorrect             24059                       # Number of conditional branches incorrect
system.cpu.branchPred.condPredicted            457272                       # Number of conditional branches predicted
system.cpu.branchPred.indirectHits             234209                       # Number of indirect target hits.
system.cpu.branchPred.indirectLookups          423880                       # Number of indirect predictor lookups.
system.cpu.branchPred.indirectMisses           189671                       # Number of indirect misses.
system.cpu.branchPred.lookups                  482683                       # Number of BP lookups
system.cpu.branchPred.usedRAS                   10873                       # Number of times the RAS was used to get a target.
system.cpu.branchPredindirectMispredicted        12201                       # Number of mispredicted indirect branches.
system.cpu.cc_regfile_reads                   2332547                       # number of cc regfile reads
system.cpu.cc_regfile_writes                  1902039                       # number of cc regfile writes
system.cpu.commit.amos                              0                       # Number of atomic instructions committed
system.cpu.commit.branchMispredicts             24136                       # The number of times a branch was mispredicted
system.cpu.commit.branches                     339678                       # Number of branches committed
system.cpu.commit.bw_lim_events                586823                       # number cycles where commit BW limit reached
system.cpu.commit.commitNonSpecStalls             732                       # The number of times commit has been forced to stall to communicate backwards
system.cpu.commit.commitSquashedInsts          876044                       # The number of squashed insts skipped by commit
system.cpu.commit.committedInsts              2027464                       # Number of instructions committed
system.cpu.commit.committedOps                3523696                       # Number of ops (including micro ops) committed
system.cpu.commit.committed_per_cycle::samples      2304489                       # Number of insts commited each cycle
system.cpu.commit.committed_per_cycle::mean     1.529057                       # Number of insts commited each cycle
system.cpu.commit.committed_per_cycle::stdev     1.725639                       # Number of insts commited each cycle
system.cpu.commit.committed_per_cycle::underflows            0      0.00%      0.00% # Number of insts commited each cycle
system.cpu.commit.committed_per_cycle::0      1158005     50.25%     50.25% # Number of insts commited each cycle
system.cpu.commit.committed_per_cycle::1       168543      7.31%     57.56% # Number of insts commited each cycle
system.cpu.commit.committed_per_cycle::2       165493      7.18%     64.74% # Number of insts commited each cycle
system.cpu.commit.committed_per_cycle::3       225625      9.79%     74.54% # Number of insts commited each cycle
system.cpu.commit.committed_per_cycle::4       586823     25.46%    100.00% # Number of insts commited each cycle
system.cpu.commit.committed_per_cycle::overflows            0      0.00%    100.00% # Number of insts commited each cycle
system.cpu.commit.committed_per_cycle::min_value            0                       # Number of insts commited each cycle
system.cpu.commit.committed_per_cycle::max_value            4                       # Number of insts commited each cycle
system.cpu.commit.committed_per_cycle::total      2304489                       # Number of insts commited each cycle
system.cpu.commit.fp_insts                      73319                       # Number of committed floating point instructions.
system.cpu.commit.function_calls                 9078                       # Number of function calls committed.
system.cpu.commit.int_insts                   3468962                       # Number of committed integer instructions.
system.cpu.commit.loads                        484882                       # Number of loads committed
system.cpu.commit.membars                           1                       # Number of memory barriers committed
system.cpu.commit.op_class_0::No_OpClass        20348      0.58%      0.58% # Class of committed instruction
system.cpu.commit.op_class_0::IntAlu          2771926     78.67%     79.24% # Class of committed instruction
system.cpu.commit.op_class_0::IntMult              27      0.00%     79.24% # Class of committed instruction
system.cpu.commit.op_class_0::IntDiv            37640      1.07%     80.31% # Class of committed instruction
system.cpu.commit.op_class_0::FloatAdd           2861      0.08%     80.39% # Class of committed instruction
system.cpu.commit.op_class_0::FloatCmp              0      0.00%     80.39% # Class of committed instruction
system.cpu.commit.op_class_0::FloatCvt           1200      0.03%     80.43% # Class of committed instruction
system.cpu.commit.op_class_0::FloatMult             0      0.00%     80.43% # Class of committed instruction
system.cpu.commit.op_class_0::FloatMultAcc            0      0.00%     80.43% # Class of committed instruction
system.cpu.commit.op_class_0::FloatDiv              0      0.00%     80.43% # Class of committed instruction
system.cpu.commit.op_class_0::FloatMisc             0      0.00%     80.43% # Class of committed instruction
system.cpu.commit.op_class_0::FloatSqrt             0      0.00%     80.43% # Class of committed instruction
system.cpu.commit.op_class_0::SimdAdd            6218      0.18%     80.60% # Class of committed instruction
system.cpu.commit.op_class_0::SimdAddAcc            0      0.00%     80.60% # Class of committed instruction
system.cpu.commit.op_class_0::SimdAlu           11204      0.32%     80.92% # Class of committed instruction
system.cpu.commit.op_class_0::SimdCmp               0      0.00%     80.92% # Class of committed instruction
system.cpu.commit.op_class_0::SimdCvt           12118      0.34%     81.27% # Class of committed instruction
system.cpu.commit.op_class_0::SimdMisc           6513      0.18%     81.45% # Class of committed instruction
system.cpu.commit.op_class_0::SimdMult              0      0.00%     81.45% # Class of committed instruction
system.cpu.commit.op_class_0::SimdMultAcc            0      0.00%     81.45% # Class of committed instruction
system.cpu.commit.op_class_0::SimdShift          1177      0.03%     81.48% # Class of committed instruction
system.cpu.commit.op_class_0::SimdShiftAcc            0      0.00%     81.48% # Class of committed instruction
system.cpu.commit.op_class_0::SimdDiv               0      0.00%     81.48% # Class of committed instruction
system.cpu.commit.op_class_0::SimdSqrt              0      0.00%     81.48% # Class of committed instruction
system.cpu.commit.op_class_0::SimdFloatAdd            0      0.00%     81.48% # Class of committed instruction
system.cpu.commit.op_class_0::SimdFloatAlu            0      0.00%     81.48% # Class of committed instruction
system.cpu.commit.op_class_0::SimdFloatCmp            0      0.00%     81.48% # Class of committed instruction
system.cpu.commit.op_class_0::SimdFloatCvt            0      0.00%     81.48% # Class of committed instruction
system.cpu.commit.op_class_0::SimdFloatDiv            0      0.00%     81.48% # Class of committed instruction
system.cpu.commit.op_class_0::SimdFloatMisc            0      0.00%     81.48% # Class of committed instruction
system.cpu.commit.op_class_0::SimdFloatMult            0      0.00%     81.48% # Class of committed instruction
system.cpu.commit.op_class_0::SimdFloatMultAcc            0      0.00%     81.48% # Class of committed instruction
system.cpu.commit.op_class_0::SimdFloatSqrt            0      0.00%     81.48% # Class of committed instruction
system.cpu.commit.op_class_0::SimdReduceAdd            0      0.00%     81.48% # Class of committed instruction
system.cpu.commit.op_class_0::SimdReduceAlu            0      0.00%     81.48% # Class of committed instruction
system.cpu.commit.op_class_0::SimdReduceCmp            0      0.00%     81.48% # Class of committed instruction
system.cpu.commit.op_class_0::SimdFloatReduceAdd            0      0.00%     81.48% # Class of committed instruction
system.cpu.commit.op_class_0::SimdFloatReduceCmp            0      0.00%     81.48% # Class of committed instruction
system.cpu.commit.op_class_0::SimdAes               0      0.00%     81.48% # Class of committed instruction
system.cpu.commit.op_class_0::SimdAesMix            0      0.00%     81.48% # Class of committed instruction
system.cpu.commit.op_class_0::SimdSha1Hash            0      0.00%     81.48% # Class of committed instruction
system.cpu.commit.op_class_0::SimdSha1Hash2            0      0.00%     81.48% # Class of committed instruction
system.cpu.commit.op_class_0::SimdSha256Hash            0      0.00%     81.48% # Class of committed instruction
system.cpu.commit.op_class_0::SimdSha256Hash2            0      0.00%     81.48% # Class of committed instruction
system.cpu.commit.op_class_0::SimdShaSigma2            0      0.00%     81.48% # Class of committed instruction
system.cpu.commit.op_class_0::SimdShaSigma3            0      0.00%     81.48% # Class of committed instruction
system.cpu.commit.op_class_0::SimdPredAlu            0      0.00%     81.48% # Class of committed instruction
system.cpu.commit.op_class_0::MemRead          465754     13.22%     94.70% # Class of committed instruction
system.cpu.commit.op_class_0::MemWrite         155509      4.41%     99.11% # Class of committed instruction
system.cpu.commit.op_class_0::FloatMemRead        19128      0.54%     99.66% # Class of committed instruction
system.cpu.commit.op_class_0::FloatMemWrite        12073      0.34%    100.00% # Class of committed instruction
system.cpu.commit.op_class_0::IprAccess             0      0.00%    100.00% # Class of committed instruction
system.cpu.commit.op_class_0::InstPrefetch            0      0.00%    100.00% # Class of committed instruction
system.cpu.commit.op_class_0::total           3523696                       # Class of committed instruction
system.cpu.commit.refs                         652464                       # Number of memory references committed
system.cpu.commit.swp_count                         0                       # Number of s/w prefetches committed
system.cpu.commit.vec_insts                         0                       # Number of committed Vector instructions.
system.cpu.committedInsts                     2027464                       # Number of Instructions Simulated
system.cpu.committedOps                       3523696                       # Number of Ops (including micro ops) Simulated
system.cpu.cpi                               1.328370                       # CPI: Cycles Per Instruction
system.cpu.cpi_total                         1.328370                       # CPI: Total CPI of All Threads
system.cpu.dcache.prefetcher.num_hwpf_issued         7560                       # number of hwpf issued
system.cpu.dcache.prefetcher.pfBufferHit        32660                       # number of redundant prefetches already in prefetch queue
system.cpu.dcache.prefetcher.pfIdentified        47440                       # number of prefetch candidates identified
system.cpu.dcache.prefetcher.pfInCache              0                       # number of redundant prefetches already in cache/mshr dropped
system.cpu.dcache.prefetcher.pfRemovedFull            0                       # number of prefetches dropped due to prefetch queue size
system.cpu.dcache.prefetcher.pfSpanPage          4272                       # number of prefetches that crossed the page
system.cpu.decode.BlockedCycles               1023407                       # Number of cycles decode is blocked
system.cpu.decode.DecodedInsts                4614962                       # Number of instructions handled by decode
system.cpu.decode.IdleCycles                   288613                       # Number of cycles decode is idle
system.cpu.decode.RunCycles                   1121914                       # Number of cycles decode is running
system.cpu.decode.SquashCycles                  24197                       # Number of cycles decode is squashing
system.cpu.decode.UnblockCycles                 85934                       # Number of cycles decode is unblocking
system.cpu.dtb.rdAccesses                      568274                       # TLB accesses on read requests
system.cpu.dtb.rdMisses                          2065                       # TLB misses on read requests
system.cpu.dtb.wrAccesses                      186772                       # TLB accesses on write requests
system.cpu.dtb.wrMisses                           162                       # TLB misses on write requests
system.cpu.fetch.Branches                      482683                       # Number of branches that fetch encountered
system.cpu.fetch.CacheLines                    235644                       # Number of cache lines fetched
system.cpu.fetch.Cycles                       2196839                       # Number of cycles fetch has run and was not squashing or blocked
system.cpu.fetch.IcacheSquashes                  4573                       # Number of outstanding Icache misses that were squashed
system.cpu.fetch.IcacheWaitRetryStallCycles           17                       # Number of stall cycles due to full MSHR
system.cpu.fetch.Insts                        2793319                       # Number of instructions fetch has processed
system.cpu.fetch.MiscStallCycles                   85                       # Number of cycles fetch has spent waiting on interrupts, or bad addresses, or out of MSHRs
system.cpu.fetch.PendingQuiesceStallCycles            6                       # Number of stall cycles due to pending quiesce instructions
system.cpu.fetch.PendingTrapStallCycles           536                       # Number of stall cycles due to pending traps
system.cpu.fetch.SquashCycles                   48394                       # Number of cycles fetch has spent squashing
system.cpu.fetch.branchRate                  0.179221                       # Number of branch fetches per cycle
system.cpu.fetch.icacheStallCycles             322385                       # Number of cycles fetch is stalled on an Icache miss
system.cpu.fetch.predictedBranches             245082                       # Number of branches that fetch has predicted taken
system.cpu.fetch.rate                        1.037166                       # Number of inst fetches per cycle
system.cpu.fetch.rateDist::samples            2544065                       # Number of instructions fetched each cycle (Total)
system.cpu.fetch.rateDist::mean              1.923246                       # Number of instructions fetched each cycle (Total)
system.cpu.fetch.rateDist::stdev             1.931666                       # Number of instructions fetched each cycle (Total)
system.cpu.fetch.rateDist::underflows               0      0.00%      0.00% # Number of instructions fetched each cycle (Total)
system.cpu.fetch.rateDist::0                  1219619     47.94%     47.94% # Number of instructions fetched each cycle (Total)
system.cpu.fetch.rateDist::1                    71861      2.82%     50.76% # Number of instructions fetched each cycle (Total)
system.cpu.fetch.rateDist::2                    57540      2.26%     53.03% # Number of instructions fetched each cycle (Total)
system.cpu.fetch.rateDist::3                    74259      2.92%     55.95% # Number of instructions fetched each cycle (Total)
system.cpu.fetch.rateDist::4                  1120786     44.05%    100.00% # Number of instructions fetched each cycle (Total)
system.cpu.fetch.rateDist::overflows                0      0.00%    100.00% # Number of instructions fetched each cycle (Total)
system.cpu.fetch.rateDist::min_value                0                       # Number of instructions fetched each cycle (Total)
system.cpu.fetch.rateDist::max_value                4                       # Number of instructions fetched each cycle (Total)
system.cpu.fetch.rateDist::total              2544065                       # Number of instructions fetched each cycle (Total)
system.cpu.fp_regfile_reads                    120910                       # number of floating regfile reads
system.cpu.fp_regfile_writes                    66647                       # number of floating regfile writes
system.cpu.fuPool.fu_ticks_busy::IntALU(0)    213236000                       # Total ticks fu was busy
system.cpu.fuPool.fu_ticks_busy::IntALU(1)    213236000                       # Total ticks fu was busy
system.cpu.fuPool.fu_ticks_busy::IntALU(2)    213235600                       # Total ticks fu was busy
system.cpu.fuPool.fu_ticks_busy::IntALU(3)    213235600                       # Total ticks fu was busy
system.cpu.fuPool.fu_ticks_busy::IntALU(4)    213235600                       # Total ticks fu was busy
system.cpu.fuPool.fu_ticks_busy::IntALU(5)    213235600                       # Total ticks fu was busy
system.cpu.fuPool.fu_ticks_busy::IntMultDiv(0)      8266400                       # Total ticks fu was busy
system.cpu.fuPool.fu_ticks_busy::IntMultDiv(1)      8265600                       # Total ticks fu was busy
system.cpu.fuPool.fu_ticks_busy::FP_ALU(0)       566800                       # Total ticks fu was busy
system.cpu.fuPool.fu_ticks_busy::FP_ALU(1)       566800                       # Total ticks fu was busy
system.cpu.fuPool.fu_ticks_busy::FP_ALU(2)       566400                       # Total ticks fu was busy
system.cpu.fuPool.fu_ticks_busy::FP_ALU(3)       566000                       # Total ticks fu was busy
system.cpu.fuPool.fu_ticks_busy::FP_MultDiv(0)            0                       # Total ticks fu was busy
system.cpu.fuPool.fu_ticks_busy::FP_MultDiv(1)            0                       # Total ticks fu was busy
system.cpu.fuPool.fu_ticks_busy::SIMD_Unit(0)      4630800                       # Total ticks fu was busy
system.cpu.fuPool.fu_ticks_busy::SIMD_Unit(1)      4565200                       # Total ticks fu was busy
system.cpu.fuPool.fu_ticks_busy::SIMD_Unit(2)      4444800                       # Total ticks fu was busy
system.cpu.fuPool.fu_ticks_busy::SIMD_Unit(3)      4499600                       # Total ticks fu was busy
system.cpu.fuPool.fu_ticks_busy::PredALU(0)            0                       # Total ticks fu was busy
system.cpu.fuPool.fu_ticks_busy::RdWrPort(0)     76938800                       # Total ticks fu was busy
system.cpu.fuPool.fu_ticks_busy::RdWrPort(1)     76955600                       # Total ticks fu was busy
system.cpu.fuPool.fu_ticks_busy::RdWrPort(2)     77007600                       # Total ticks fu was busy
system.cpu.fuPool.fu_ticks_busy::RdWrPort(3)     76955600                       # Total ticks fu was busy
system.cpu.fuPool.fu_ticks_busy::IprPort(0)            0                       # Total ticks fu was busy
system.cpu.fuPool.fu_ticks_busy::total     1624210400                       # Total ticks fu was busy
system.cpu.icache.prefetcher.num_hwpf_issued            0                       # number of hwpf issued
system.cpu.icache.prefetcher.pfBufferHit            0                       # number of redundant prefetches already in prefetch queue
system.cpu.icache.prefetcher.pfIdentified            0                       # number of prefetch candidates identified
system.cpu.icache.prefetcher.pfInCache              0                       # number of redundant prefetches already in cache/mshr dropped
system.cpu.icache.prefetcher.pfRemovedFull            0                       # number of prefetches dropped due to prefetch queue size
system.cpu.icache.prefetcher.pfSpanPage             0                       # number of prefetches that crossed the page
system.cpu.idleCycles                          149158                       # Total number of cycles that the CPU has spent unscheduled due to idling
system.cpu.iew.branchMispredicts                28568                       # Number of branch mispredicts detected at execute
system.cpu.iew.exec_branches                   369962                       # Number of branches executed
system.cpu.iew.exec_nop                             0                       # number of nop insts executed
system.cpu.iew.exec_rate                     1.504672                       # Inst execution rate
system.cpu.iew.exec_refs                       756646                       # number of memory reference insts executed
system.cpu.iew.exec_stores                     186764                       # Number of stores executed
system.cpu.iew.exec_swp                             0                       # number of swp insts executed
system.cpu.iew.iewBlockCycles                  694039                       # Number of cycles IEW is blocking
system.cpu.iew.iewDispLoadInsts                599929                       # Number of dispatched load instructions
system.cpu.iew.iewDispNonSpecInsts                914                       # Number of dispatched non-speculative instructions
system.cpu.iew.iewDispSquashedInsts               586                       # Number of squashed instructions skipped by dispatch
system.cpu.iew.iewDispStoreInsts               196823                       # Number of dispatched store instructions
system.cpu.iew.iewDispatchedInsts             4399692                       # Number of instructions dispatched to IQ
system.cpu.iew.iewExecLoadInsts                569882                       # Number of load instructions executed
system.cpu.iew.iewExecSquashedInsts             34723                       # Number of squashed instructions skipped in execute
system.cpu.iew.iewExecutedInsts               4052416                       # Number of executed instructions
system.cpu.iew.iewIQFullEvents                   3349                       # Number of times the IQ has become full, causing a stall
system.cpu.iew.iewIdleCycles                        0                       # Number of cycles IEW is idle
system.cpu.iew.iewLSQFullEvents                  8906                       # Number of times the LSQ has become full, causing a stall
system.cpu.iew.iewSquashCycles                  24197                       # Number of cycles IEW is squashing
system.cpu.iew.iewUnblockCycles                 15120                       # Number of cycles IEW is unblocking
system.cpu.iew.lsq.thread0.blockedLoads             0                       # Number of blocked loads due to partial load-store forwarding
system.cpu.iew.lsq.thread0.cacheBlocked           576                       # Number of times an access to memory failed due to the cache being blocked
system.cpu.iew.lsq.thread0.forwLoads            39530                       # Number of loads that had data forwarded from stores
system.cpu.iew.lsq.thread0.ignoredResponses          238                       # Number of memory responses ignored because the instruction is squashed
system.cpu.iew.lsq.thread0.invAddrLoads             0                       # Number of loads ignored due to an invalid address
system.cpu.iew.lsq.thread0.invAddrSwpfs             0                       # Number of software prefetches ignored due to an invalid address
system.cpu.iew.lsq.thread0.memOrderViolation           72                       # Number of memory ordering violations
system.cpu.iew.lsq.thread0.rescheduledLoads            0                       # Number of loads that were rescheduled
system.cpu.iew.lsq.thread0.squashedLoads       115045                       # Number of loads squashed
system.cpu.iew.lsq.thread0.squashedStores        29240                       # Number of stores squashed
system.cpu.iew.memOrderViolationEvents             72                       # Number of memory order violations
system.cpu.iew.predictedNotTakenIncorrect        20344                       # Number of branches that were predicted not taken incorrectly
system.cpu.iew.predictedTakenIncorrect           8224                       # Number of branches that were predicted taken incorrectly
system.cpu.iew.wb_consumers                   5680572                       # num instructions consuming a value
system.cpu.iew.wb_count                       4030028                       # cumulative count of insts written-back
system.cpu.iew.wb_fanout                     0.567233                       # average fanout of values written-back
system.cpu.iew.wb_producers                   3222209                       # num instructions producing a value
system.cpu.iew.wb_rate                       1.496359                       # insts written-back per cycle
system.cpu.iew.wb_sent                        4037125                       # cumulative count of insts sent to commit
system.cpu.int_regfile_reads                  6275659                       # number of integer regfile reads
system.cpu.int_regfile_writes                 3480913                       # number of integer regfile writes
system.cpu.ipc                               0.752802                       # IPC: Instructions Per Cycle
system.cpu.ipc_total                         0.752802                       # IPC: Total IPC of All Threads
system.cpu.iq.FU_type_0::No_OpClass             26613      0.65%      0.65% # Type of FU issued
system.cpu.iq.FU_type_0::IntAlu               3198537     78.26%     78.91% # Type of FU issued
system.cpu.iq.FU_type_0::IntMult                   49      0.00%     78.91% # Type of FU issued
system.cpu.iq.FU_type_0::IntDiv                 41281      1.01%     79.92% # Type of FU issued
system.cpu.iq.FU_type_0::FloatAdd                4427      0.11%     80.03% # Type of FU issued
system.cpu.iq.FU_type_0::FloatCmp                   0      0.00%     80.03% # Type of FU issued
system.cpu.iq.FU_type_0::FloatCvt                1238      0.03%     80.06% # Type of FU issued
system.cpu.iq.FU_type_0::FloatMult                  0      0.00%     80.06% # Type of FU issued
system.cpu.iq.FU_type_0::FloatMultAcc               0      0.00%     80.06% # Type of FU issued
system.cpu.iq.FU_type_0::FloatDiv                   0      0.00%     80.06% # Type of FU issued
system.cpu.iq.FU_type_0::FloatMisc                  0      0.00%     80.06% # Type of FU issued
system.cpu.iq.FU_type_0::FloatSqrt                  0      0.00%     80.06% # Type of FU issued
system.cpu.iq.FU_type_0::SimdAdd                 6908      0.17%     80.23% # Type of FU issued
system.cpu.iq.FU_type_0::SimdAddAcc                 0      0.00%     80.23% # Type of FU issued
system.cpu.iq.FU_type_0::SimdAlu                15015      0.37%     80.60% # Type of FU issued
system.cpu.iq.FU_type_0::SimdCmp                    0      0.00%     80.60% # Type of FU issued
system.cpu.iq.FU_type_0::SimdCvt                13972      0.34%     80.94% # Type of FU issued
system.cpu.iq.FU_type_0::SimdMisc                7129      0.17%     81.11% # Type of FU issued
system.cpu.iq.FU_type_0::SimdMult                   0      0.00%     81.11% # Type of FU issued
system.cpu.iq.FU_type_0::SimdMultAcc                0      0.00%     81.11% # Type of FU issued
system.cpu.iq.FU_type_0::SimdShift               2327      0.06%     81.17% # Type of FU issued
system.cpu.iq.FU_type_0::SimdShiftAcc               0      0.00%     81.17% # Type of FU issued
system.cpu.iq.FU_type_0::SimdDiv                    0      0.00%     81.17% # Type of FU issued
system.cpu.iq.FU_type_0::SimdSqrt                   0      0.00%     81.17% # Type of FU issued
system.cpu.iq.FU_type_0::SimdFloatAdd               0      0.00%     81.17% # Type of FU issued
system.cpu.iq.FU_type_0::SimdFloatAlu               0      0.00%     81.17% # Type of FU issued
system.cpu.iq.FU_type_0::SimdFloatCmp               0      0.00%     81.17% # Type of FU issued
system.cpu.iq.FU_type_0::SimdFloatCvt               0      0.00%     81.17% # Type of FU issued
system.cpu.iq.FU_type_0::SimdFloatDiv               0      0.00%     81.17% # Type of FU issued
system.cpu.iq.FU_type_0::SimdFloatMisc              0      0.00%     81.17% # Type of FU issued
system.cpu.iq.FU_type_0::SimdFloatMult              0      0.00%     81.17% # Type of FU issued
system.cpu.iq.FU_type_0::SimdFloatMultAcc            0      0.00%     81.17% # Type of FU issued
system.cpu.iq.FU_type_0::SimdFloatSqrt              0      0.00%     81.17% # Type of FU issued
system.cpu.iq.FU_type_0::SimdReduceAdd              0      0.00%     81.17% # Type of FU issued
system.cpu.iq.FU_type_0::SimdReduceAlu              0      0.00%     81.17% # Type of FU issued
system.cpu.iq.FU_type_0::SimdReduceCmp              0      0.00%     81.17% # Type of FU issued
system.cpu.iq.FU_type_0::SimdFloatReduceAdd            0      0.00%     81.17% # Type of FU issued
system.cpu.iq.FU_type_0::SimdFloatReduceCmp            0      0.00%     81.17% # Type of FU issued
system.cpu.iq.FU_type_0::SimdAes                    0      0.00%     81.17% # Type of FU issued
system.cpu.iq.FU_type_0::SimdAesMix                 0      0.00%     81.17% # Type of FU issued
system.cpu.iq.FU_type_0::SimdSha1Hash               0      0.00%     81.17% # Type of FU issued
system.cpu.iq.FU_type_0::SimdSha1Hash2              0      0.00%     81.17% # Type of FU issued
system.cpu.iq.FU_type_0::SimdSha256Hash             0      0.00%     81.17% # Type of FU issued
system.cpu.iq.FU_type_0::SimdSha256Hash2            0      0.00%     81.17% # Type of FU issued
system.cpu.iq.FU_type_0::SimdShaSigma2              0      0.00%     81.17% # Type of FU issued
system.cpu.iq.FU_type_0::SimdShaSigma3              0      0.00%     81.17% # Type of FU issued
system.cpu.iq.FU_type_0::SimdPredAlu                0      0.00%     81.17% # Type of FU issued
system.cpu.iq.FU_type_0::MemRead               554831     13.58%     94.74% # Type of FU issued
system.cpu.iq.FU_type_0::MemWrite              175948      4.30%     99.05% # Type of FU issued
system.cpu.iq.FU_type_0::FloatMemRead           25466      0.62%     99.67% # Type of FU issued
system.cpu.iq.FU_type_0::FloatMemWrite          13401      0.33%    100.00% # Type of FU issued
system.cpu.iq.FU_type_0::IprAccess                  0      0.00%    100.00% # Type of FU issued
system.cpu.iq.FU_type_0::InstPrefetch               0      0.00%    100.00% # Type of FU issued
system.cpu.iq.FU_type_0::total                4087142                       # Type of FU issued
system.cpu.iq.fp_alu_accesses                   90925                       # Number of floating point alu accesses
system.cpu.iq.fp_inst_queue_reads              183286                       # Number of floating instruction queue reads
system.cpu.iq.fp_inst_queue_wakeup_accesses        87326                       # Number of floating instruction queue wakeup accesses
system.cpu.iq.fp_inst_queue_writes             134497                       # Number of floating instruction queue writes
system.cpu.iq.fu_busy_cnt                           0                       # FU busy when requested
system.cpu.iq.fu_busy_rate                          0                       # FU busy rate (busy events/executed inst)
system.cpu.iq.fu_full::No_OpClass                   0                       # attempts to use FU when none available
system.cpu.iq.fu_full::IntAlu                       0                       # attempts to use FU when none available
system.cpu.iq.fu_full::IntMult                      0                       # attempts to use FU when none available
system.cpu.iq.fu_full::IntDiv                       0                       # attempts to use FU when none available
system.cpu.iq.fu_full::FloatAdd                     0                       # attempts to use FU when none available
system.cpu.iq.fu_full::FloatCmp                     0                       # attempts to use FU when none available
system.cpu.iq.fu_full::FloatCvt                     0                       # attempts to use FU when none available
system.cpu.iq.fu_full::FloatMult                    0                       # attempts to use FU when none available
system.cpu.iq.fu_full::FloatMultAcc                 0                       # attempts to use FU when none available
system.cpu.iq.fu_full::FloatDiv                     0                       # attempts to use FU when none available
system.cpu.iq.fu_full::FloatMisc                    0                       # attempts to use FU when none available
system.cpu.iq.fu_full::FloatSqrt                    0                       # attempts to use FU when none available
system.cpu.iq.fu_full::SimdAdd                      0                       # attempts to use FU when none available
system.cpu.iq.fu_full::SimdAddAcc                   0                       # attempts to use FU when none available
system.cpu.iq.fu_full::SimdAlu                      0                       # attempts to use FU when none available
system.cpu.iq.fu_full::SimdCmp                      0                       # attempts to use FU when none available
system.cpu.iq.fu_full::SimdCvt                      0                       # attempts to use FU when none available
system.cpu.iq.fu_full::SimdMisc                     0                       # attempts to use FU when none available
system.cpu.iq.fu_full::SimdMult                     0                       # attempts to use FU when none available
system.cpu.iq.fu_full::SimdMultAcc                  0                       # attempts to use FU when none available
system.cpu.iq.fu_full::SimdShift                    0                       # attempts to use FU when none available
system.cpu.iq.fu_full::SimdShiftAcc                 0                       # attempts to use FU when none available
system.cpu.iq.fu_full::SimdDiv                      0                       # attempts to use FU when none available
system.cpu.iq.fu_full::SimdSqrt                     0                       # attempts to use FU when none available
system.cpu.iq.fu_full::SimdFloatAdd                 0                       # attempts to use FU when none available
system.cpu.iq.fu_full::SimdFloatAlu                 0                       # attempts to use FU when none available
system.cpu.iq.fu_full::SimdFloatCmp                 0                       # attempts to use FU when none available
system.cpu.iq.fu_full::SimdFloatCvt                 0                       # attempts to use FU when none available
system.cpu.iq.fu_full::SimdFloatDiv                 0                       # attempts to use FU when none available
system.cpu.iq.fu_full::SimdFloatMisc                0                       # attempts to use FU when none available
system.cpu.iq.fu_full::SimdFloatMult                0                       # attempts to use FU when none available
system.cpu.iq.fu_full::SimdFloatMultAcc             0                       # attempts to use FU when none available
system.cpu.iq.fu_full::SimdFloatSqrt                0                       # attempts to use FU when none available
system.cpu.iq.fu_full::SimdReduceAdd                0                       # attempts to use FU when none available
system.cpu.iq.fu_full::SimdReduceAlu                0                       # attempts to use FU when none available
system.cpu.iq.fu_full::SimdReduceCmp                0                       # attempts to use FU when none available
system.cpu.iq.fu_full::SimdFloatReduceAdd            0                       # attempts to use FU when none available
system.cpu.iq.fu_full::SimdFloatReduceCmp            0                       # attempts to use FU when none available
system.cpu.iq.fu_full::SimdAes                      0                       # attempts to use FU when none available
system.cpu.iq.fu_full::SimdAesMix                   0                       # attempts to use FU when none available
system.cpu.iq.fu_full::SimdSha1Hash                 0                       # attempts to use FU when none available
system.cpu.iq.fu_full::SimdSha1Hash2                0                       # attempts to use FU when none available
system.cpu.iq.fu_full::SimdSha256Hash               0                       # attempts to use FU when none available
system.cpu.iq.fu_full::SimdSha256Hash2              0                       # attempts to use FU when none available
system.cpu.iq.fu_full::SimdShaSigma2                0                       # attempts to use FU when none available
system.cpu.iq.fu_full::SimdShaSigma3                0                       # attempts to use FU when none available
system.cpu.iq.fu_full::SimdPredAlu                  0                       # attempts to use FU when none available
system.cpu.iq.fu_full::MemRead                      0                       # attempts to use FU when none available
system.cpu.iq.fu_full::MemWrite                     0                       # attempts to use FU when none available
system.cpu.iq.fu_full::FloatMemRead                 0                       # attempts to use FU when none available
system.cpu.iq.fu_full::FloatMemWrite                0                       # attempts to use FU when none available
system.cpu.iq.fu_full::IprAccess                    0                       # attempts to use FU when none available
system.cpu.iq.fu_full::InstPrefetch                 0                       # attempts to use FU when none available
system.cpu.iq.int_alu_accesses                3969604                       # Number of integer alu accesses
system.cpu.iq.int_inst_queue_reads           10553447                       # Number of integer instruction queue reads
system.cpu.iq.int_inst_queue_wakeup_accesses      3942702                       # Number of integer instruction queue wakeup accesses
system.cpu.iq.int_inst_queue_writes           5141251                       # Number of integer instruction queue writes
system.cpu.iq.iqInstsAdded                    4398620                       # Number of instructions added to the IQ (excludes non-spec)
system.cpu.iq.iqInstsIssued                   4087142                       # Number of instructions issued
system.cpu.iq.iqNonSpecInstsAdded                1072                       # Number of non-speculative instructions added to the IQ
system.cpu.iq.iqSquashedInstsExamined          875985                       # Number of squashed instructions iterated over during squash; mainly for profiling
system.cpu.iq.iqSquashedInstsIssued             18387                       # Number of squashed instructions issued
system.cpu.iq.iqSquashedNonSpecRemoved            340                       # Number of squashed non-spec instructions that were removed
system.cpu.iq.iqSquashedOperandsExamined      1291408                       # Number of squashed operands that are examined and possibly removed from graph
system.cpu.iq.issued_per_cycle::samples       2544065                       # Number of insts issued each cycle
system.cpu.iq.issued_per_cycle::mean         1.606540                       # Number of insts issued each cycle
system.cpu.iq.issued_per_cycle::stdev        1.672257                       # Number of insts issued each cycle
system.cpu.iq.issued_per_cycle::underflows            0      0.00%      0.00% # Number of insts issued each cycle
system.cpu.iq.issued_per_cycle::0             1167472     45.89%     45.89% # Number of insts issued each cycle
system.cpu.iq.issued_per_cycle::1              167598      6.59%     52.48% # Number of insts issued each cycle
system.cpu.iq.issued_per_cycle::2              292012     11.48%     63.96% # Number of insts issued each cycle
system.cpu.iq.issued_per_cycle::3              332412     13.07%     77.02% # Number of insts issued each cycle
system.cpu.iq.issued_per_cycle::4              584571     22.98%    100.00% # Number of insts issued each cycle
system.cpu.iq.issued_per_cycle::overflows            0      0.00%    100.00% # Number of insts issued each cycle
system.cpu.iq.issued_per_cycle::min_value            0                       # Number of insts issued each cycle
system.cpu.iq.issued_per_cycle::max_value            4                       # Number of insts issued each cycle
system.cpu.iq.issued_per_cycle::total         2544065                       # Number of insts issued each cycle
system.cpu.iq.rate                           1.517565                       # Inst issue rate
system.cpu.iq.vec_alu_accesses                      0                       # Number of vector alu accesses
system.cpu.iq.vec_inst_queue_reads                  0                       # Number of vector instruction queue reads
system.cpu.iq.vec_inst_queue_wakeup_accesses            0                       # Number of vector instruction queue wakeup accesses
system.cpu.iq.vec_inst_queue_writes                 0                       # Number of vector instruction queue writes
system.cpu.itb.rdAccesses                           0                       # TLB accesses on read requests
system.cpu.itb.rdMisses                             0                       # TLB misses on read requests
system.cpu.itb.wrAccesses                      235737                       # TLB accesses on write requests
system.cpu.itb.wrMisses                           330                       # TLB misses on write requests
system.cpu.memDep0.conflictingLoads              8671                       # Number of conflicting loads.
system.cpu.memDep0.conflictingStores             3641                       # Number of conflicting stores.
system.cpu.memDep0.insertedLoads               599929                       # Number of loads inserted to the mem dependence unit.
system.cpu.memDep0.insertedStores              196823                       # Number of stores inserted to the mem dependence unit.
system.cpu.misc_regfile_reads                 1530719                       # number of misc regfile reads
system.cpu.misc_regfile_writes                    675                       # number of misc regfile writes
system.cpu.numCycles                          2693223                       # number of cpu cycles simulated
system.cpu.numWorkItemsCompleted                    0                       # number of work items this cpu completed
system.cpu.numWorkItemsStarted                      0                       # number of work items this cpu started
system.cpu.process.numSyscalls                     56                       # Number of system calls
system.cpu.rename.BlockCycles                  839480                       # Number of cycles rename is blocking
system.cpu.rename.CommittedMaps               4829668                       # Number of HB maps that are committed
system.cpu.rename.FullRegisterEvents              253                       # Number of times there has been no free registers
system.cpu.rename.IQFullEvents                  43792                       # Number of times rename has blocked due to IQ full
system.cpu.rename.IdleCycles                   337478                       # Number of cycles rename is idle
system.cpu.rename.LQFullEvents                  17443                       # Number of times rename has blocked due to LQ full
system.cpu.rename.ROBFullEvents                  4390                       # Number of times rename has blocked due to ROB full
system.cpu.rename.RenameLookups              11864173                       # Number of register rename lookups that rename has made
system.cpu.rename.RenamedInsts                4540475                       # Number of instructions processed by rename
system.cpu.rename.RenamedOperands             6205890                       # Number of destination operands rename has renamed
system.cpu.rename.RunCycles                   1150715                       # Number of cycles rename is running
system.cpu.rename.SQFullEvents                  74913                       # Number of times rename has blocked due to SQ full
system.cpu.rename.SquashCycles                  24197                       # Number of cycles rename is squashing
system.cpu.rename.UnblockCycles                172297                       # Number of cycles rename is unblocking
system.cpu.rename.UndoneMaps                  1376199                       # Number of HB maps that are undone due to squashing
system.cpu.rename.fp_rename_lookups            157937                       # Number of floating rename lookups
system.cpu.rename.int_rename_lookups          7198936                       # Number of integer rename lookups
system.cpu.rename.serializeStallCycles          19898                       # count of cycles rename stalled for serializing inst
system.cpu.rename.serializingInsts                870                       # count of serializing insts renamed
system.cpu.rename.skidInsts                    199333                       # count of insts added to the skid buffer
system.cpu.rename.tempSerializingInsts            922                       # count of temporary serializing insts renamed
system.cpu.rob.rob_reads                      6117406                       # The number of ROB reads
system.cpu.rob.rob_writes                     9039984                       # The number of ROB writes
system.cpu.timesIdled                            1494                       # Number of times that the entire CPU went into an idle state and unscheduled itself
system.l2bus.snoop_filter.hit_multi_requests            9                       # Number of requests hitting in the snoop filter with multiple (>1) holders of the requested data.
system.l2bus.snoop_filter.hit_multi_snoops            0                       # Number of snoops hitting in the snoop filter with multiple (>1) holders of the requested data.
system.l2bus.snoop_filter.hit_single_requests        18046                       # Number of requests hitting in the snoop filter with a single holder of the requested data.
system.l2bus.snoop_filter.hit_single_snoops          415                       # Number of snoops hitting in the snoop filter with a single holder of the requested data.
system.l2bus.snoop_filter.tot_requests          37372                       # Total number of requests made to the snoop filter.
system.l2bus.snoop_filter.tot_snoops              415                       # Total number of snoops made to the snoop filter.
system.l2cache.prefetcher.num_hwpf_issued          659                       # number of hwpf issued
system.l2cache.prefetcher.pfBufferHit               0                       # number of redundant prefetches already in prefetch queue
system.l2cache.prefetcher.pfIdentified            660                       # number of prefetch candidates identified
system.l2cache.prefetcher.pfInCache                 0                       # number of redundant prefetches already in cache/mshr dropped
system.l2cache.prefetcher.pfRemovedFull             0                       # number of prefetches dropped due to prefetch queue size
system.l2cache.prefetcher.pfSpanPage              124                       # number of prefetches that crossed the page
system.membus.snoop_filter.hit_multi_requests            0                       # Number of requests hitting in the snoop filter with multiple (>1) holders of the requested data.
system.membus.snoop_filter.hit_multi_snoops            0                       # Number of snoops hitting in the snoop filter with multiple (>1) holders of the requested data.
system.membus.snoop_filter.hit_single_requests         9183                       # Number of requests hitting in the snoop filter with a single holder of the requested data.
system.membus.snoop_filter.hit_single_snoops            0                       # Number of snoops hitting in the snoop filter with a single holder of the requested data.
system.membus.snoop_filter.tot_requests         22487                       # Total number of requests made to the snoop filter.
system.membus.snoop_filter.tot_snoops               0                       # Total number of snoops made to the snoop filter.
system.membus.pwrStateResidencyTicks::UNDEFINED   1077288800                       # Cumulative time (in ticks) in various power states
system.membus.trans_dist::ReadResp              11991                       # Transaction distribution
system.membus.trans_dist::WritebackDirty         1313                       # Transaction distribution
system.membus.trans_dist::CleanEvict             7870                       # Transaction distribution
system.membus.trans_dist::ReadExReq              1313                       # Transaction distribution
system.membus.trans_dist::ReadExResp             1313                       # Transaction distribution
system.membus.trans_dist::ReadSharedReq         11991                       # Transaction distribution
system.membus.pkt_count_system.l2cache.mem_side::system.mem_ctrl.port        35791                       # Packet count per connected master and slave (bytes)
system.membus.pkt_count_system.l2cache.mem_side::total        35791                       # Packet count per connected master and slave (bytes)
system.membus.pkt_count::total                  35791                       # Packet count per connected master and slave (bytes)
system.membus.pkt_size_system.l2cache.mem_side::system.mem_ctrl.port       935488                       # Cumulative packet size per connected master and slave (bytes)
system.membus.pkt_size_system.l2cache.mem_side::total       935488                       # Cumulative packet size per connected master and slave (bytes)
system.membus.pkt_size::total                  935488                       # Cumulative packet size per connected master and slave (bytes)
system.membus.snoops                                0                       # Total snoops (count)
system.membus.snoopTraffic                          0                       # Total snoop traffic (bytes)
system.membus.snoop_fanout::samples             13304                       # Request fanout histogram
system.membus.snoop_fanout::mean                    0                       # Request fanout histogram
system.membus.snoop_fanout::stdev                   0                       # Request fanout histogram
system.membus.snoop_fanout::underflows              0      0.00%      0.00% # Request fanout histogram
system.membus.snoop_fanout::0                   13304    100.00%    100.00% # Request fanout histogram
system.membus.snoop_fanout::1                       0      0.00%    100.00% # Request fanout histogram
system.membus.snoop_fanout::overflows               0      0.00%    100.00% # Request fanout histogram
system.membus.snoop_fanout::min_value               0                       # Request fanout histogram
system.membus.snoop_fanout::max_value               0                       # Request fanout histogram
system.membus.snoop_fanout::total               13304                       # Request fanout histogram
system.membus.reqLayer2.occupancy            11119235                       # Layer occupancy (ticks)
system.membus.reqLayer2.utilization               1.0                       # Layer utilization (%)
system.membus.respLayer0.occupancy           28864965                       # Layer occupancy (ticks)
system.membus.respLayer0.utilization              2.7                       # Layer utilization (%)
system.l2bus.pwrStateResidencyTicks::UNDEFINED   1077288800                       # Cumulative time (in ticks) in various power states
system.l2bus.trans_dist::ReadResp               17280                       # Transaction distribution
system.l2bus.trans_dist::WritebackDirty          4065                       # Transaction distribution
system.l2bus.trans_dist::CleanEvict             23247                       # Transaction distribution
system.l2bus.trans_dist::HardPFReq                934                       # Transaction distribution
system.l2bus.trans_dist::ReadExReq               2046                       # Transaction distribution
system.l2bus.trans_dist::ReadExResp              2046                       # Transaction distribution
system.l2bus.trans_dist::ReadSharedReq          17280                       # Transaction distribution
system.l2bus.pkt_count_system.cpu.icache.mem_side::system.l2cache.cpu_side         7725                       # Packet count per connected master and slave (bytes)
system.l2bus.pkt_count_system.cpu.dcache.mem_side::system.l2cache.cpu_side        48971                       # Packet count per connected master and slave (bytes)
system.l2bus.pkt_count::total                   56696                       # Packet count per connected master and slave (bytes)
system.l2bus.pkt_size_system.cpu.icache.mem_side::system.l2cache.cpu_side       170176                       # Cumulative packet size per connected master and slave (bytes)
system.l2bus.pkt_size_system.cpu.dcache.mem_side::system.l2cache.cpu_side      1242688                       # Cumulative packet size per connected master and slave (bytes)
system.l2bus.pkt_size::total                  1412864                       # Cumulative packet size per connected master and slave (bytes)
system.l2bus.snoops                             10202                       # Total snoops (count)
system.l2bus.snoopTraffic                       84160                       # Total snoop traffic (bytes)
system.l2bus.snoop_fanout::samples              29526                       # Request fanout histogram
system.l2bus.snoop_fanout::mean              0.014360                       # Request fanout histogram
system.l2bus.snoop_fanout::stdev             0.118973                       # Request fanout histogram
system.l2bus.snoop_fanout::underflows               0      0.00%      0.00% # Request fanout histogram
system.l2bus.snoop_fanout::0                    29102     98.56%     98.56% # Request fanout histogram
system.l2bus.snoop_fanout::1                      424      1.44%    100.00% # Request fanout histogram
system.l2bus.snoop_fanout::2                        0      0.00%    100.00% # Request fanout histogram
system.l2bus.snoop_fanout::overflows                0      0.00%    100.00% # Request fanout histogram
system.l2bus.snoop_fanout::min_value                0                       # Request fanout histogram
system.l2bus.snoop_fanout::max_value                1                       # Request fanout histogram
system.l2bus.snoop_fanout::total                29526                       # Request fanout histogram
system.l2bus.respLayer1.occupancy            19998399                       # Layer occupancy (ticks)
system.l2bus.respLayer1.utilization               1.9                       # Layer utilization (%)
system.l2bus.reqLayer0.occupancy             18492991                       # Layer occupancy (ticks)
system.l2bus.reqLayer0.utilization                1.7                       # Layer utilization (%)
system.l2bus.respLayer0.occupancy             3193998                       # Layer occupancy (ticks)
system.l2bus.respLayer0.utilization               0.3                       # Layer utilization (%)
system.clk_domain.clock                           400                       # Clock period in ticks
system.clk_domain.voltage_domain.voltage            1                       # Voltage in Volts
system.cpu.pwrStateResidencyTicks::ON      1077288800                       # Cumulative time (in ticks) in various power states
system.cpu.icache.pwrStateResidencyTicks::UNDEFINED   1077288800                       # Cumulative time (in ticks) in various power states
system.cpu.icache.demand_hits::.cpu.inst       232296                       # number of demand (read+write) hits
system.cpu.icache.demand_hits::total           232296                       # number of demand (read+write) hits
system.cpu.icache.overall_hits::.cpu.inst       232296                       # number of overall hits
system.cpu.icache.overall_hits::total          232296                       # number of overall hits
system.cpu.icache.demand_misses::.cpu.inst         3348                       # number of demand (read+write) misses
system.cpu.icache.demand_misses::total           3348                       # number of demand (read+write) misses
system.cpu.icache.overall_misses::.cpu.inst         3348                       # number of overall misses
system.cpu.icache.overall_misses::total          3348                       # number of overall misses
system.cpu.icache.demand_miss_latency::.cpu.inst    165561199                       # number of demand (read+write) miss cycles
system.cpu.icache.demand_miss_latency::total    165561199                       # number of demand (read+write) miss cycles
system.cpu.icache.overall_miss_latency::.cpu.inst    165561199                       # number of overall miss cycles
system.cpu.icache.overall_miss_latency::total    165561199                       # number of overall miss cycles
system.cpu.icache.demand_accesses::.cpu.inst       235644                       # number of demand (read+write) accesses
system.cpu.icache.demand_accesses::total       235644                       # number of demand (read+write) accesses
system.cpu.icache.overall_accesses::.cpu.inst       235644                       # number of overall (read+write) accesses
system.cpu.icache.overall_accesses::total       235644                       # number of overall (read+write) accesses
system.cpu.icache.demand_miss_rate::.cpu.inst     0.014208                       # miss rate for demand accesses
system.cpu.icache.demand_miss_rate::total     0.014208                       # miss rate for demand accesses
system.cpu.icache.overall_miss_rate::.cpu.inst     0.014208                       # miss rate for overall accesses
system.cpu.icache.overall_miss_rate::total     0.014208                       # miss rate for overall accesses
system.cpu.icache.demand_avg_miss_latency::.cpu.inst 49450.776284                       # average overall miss latency
system.cpu.icache.demand_avg_miss_latency::total 49450.776284                       # average overall miss latency
system.cpu.icache.overall_avg_miss_latency::.cpu.inst 49450.776284                       # average overall miss latency
system.cpu.icache.overall_avg_miss_latency::total 49450.776284                       # average overall miss latency
system.cpu.icache.blocked_cycles::no_mshrs          125                       # number of cycles access was blocked
system.cpu.icache.blocked_cycles::no_targets            0                       # number of cycles access was blocked
system.cpu.icache.blocked::no_mshrs                 3                       # number of cycles access was blocked
system.cpu.icache.blocked::no_targets               0                       # number of cycles access was blocked
system.cpu.icache.avg_blocked_cycles::no_mshrs    41.666667                       # average number of cycles each access was blocked
system.cpu.icache.avg_blocked_cycles::no_targets          nan                       # average number of cycles each access was blocked
system.cpu.icache.demand_mshr_hits::.cpu.inst          687                       # number of demand (read+write) MSHR hits
system.cpu.icache.demand_mshr_hits::total          687                       # number of demand (read+write) MSHR hits
system.cpu.icache.overall_mshr_hits::.cpu.inst          687                       # number of overall MSHR hits
system.cpu.icache.overall_mshr_hits::total          687                       # number of overall MSHR hits
system.cpu.icache.demand_mshr_misses::.cpu.inst         2661                       # number of demand (read+write) MSHR misses
system.cpu.icache.demand_mshr_misses::total         2661                       # number of demand (read+write) MSHR misses
system.cpu.icache.overall_mshr_misses::.cpu.inst         2661                       # number of overall MSHR misses
system.cpu.icache.overall_mshr_misses::total         2661                       # number of overall MSHR misses
system.cpu.icache.demand_mshr_miss_latency::.cpu.inst    132565599                       # number of demand (read+write) MSHR miss cycles
system.cpu.icache.demand_mshr_miss_latency::total    132565599                       # number of demand (read+write) MSHR miss cycles
system.cpu.icache.overall_mshr_miss_latency::.cpu.inst    132565599                       # number of overall MSHR miss cycles
system.cpu.icache.overall_mshr_miss_latency::total    132565599                       # number of overall MSHR miss cycles
system.cpu.icache.demand_mshr_miss_rate::.cpu.inst     0.011292                       # mshr miss rate for demand accesses
system.cpu.icache.demand_mshr_miss_rate::total     0.011292                       # mshr miss rate for demand accesses
system.cpu.icache.overall_mshr_miss_rate::.cpu.inst     0.011292                       # mshr miss rate for overall accesses
system.cpu.icache.overall_mshr_miss_rate::total     0.011292                       # mshr miss rate for overall accesses
system.cpu.icache.demand_avg_mshr_miss_latency::.cpu.inst 49817.962796                       # average overall mshr miss latency
system.cpu.icache.demand_avg_mshr_miss_latency::total 49817.962796                       # average overall mshr miss latency
system.cpu.icache.overall_avg_mshr_miss_latency::.cpu.inst 49817.962796                       # average overall mshr miss latency
system.cpu.icache.overall_avg_mshr_miss_latency::total 49817.962796                       # average overall mshr miss latency
system.cpu.icache.replacements                   2405                       # number of replacements
system.cpu.icache.ReadReq_hits::.cpu.inst       232296                       # number of ReadReq hits
system.cpu.icache.ReadReq_hits::total          232296                       # number of ReadReq hits
system.cpu.icache.ReadReq_misses::.cpu.inst         3348                       # number of ReadReq misses
system.cpu.icache.ReadReq_misses::total          3348                       # number of ReadReq misses
system.cpu.icache.ReadReq_miss_latency::.cpu.inst    165561199                       # number of ReadReq miss cycles
system.cpu.icache.ReadReq_miss_latency::total    165561199                       # number of ReadReq miss cycles
system.cpu.icache.ReadReq_accesses::.cpu.inst       235644                       # number of ReadReq accesses(hits+misses)
system.cpu.icache.ReadReq_accesses::total       235644                       # number of ReadReq accesses(hits+misses)
system.cpu.icache.ReadReq_miss_rate::.cpu.inst     0.014208                       # miss rate for ReadReq accesses
system.cpu.icache.ReadReq_miss_rate::total     0.014208                       # miss rate for ReadReq accesses
system.cpu.icache.ReadReq_avg_miss_latency::.cpu.inst 49450.776284                       # average ReadReq miss latency
system.cpu.icache.ReadReq_avg_miss_latency::total 49450.776284                       # average ReadReq miss latency
system.cpu.icache.ReadReq_mshr_hits::.cpu.inst          687                       # number of ReadReq MSHR hits
system.cpu.icache.ReadReq_mshr_hits::total          687                       # number of ReadReq MSHR hits
system.cpu.icache.ReadReq_mshr_misses::.cpu.inst         2661                       # number of ReadReq MSHR misses
system.cpu.icache.ReadReq_mshr_misses::total         2661                       # number of ReadReq MSHR misses
system.cpu.icache.ReadReq_mshr_miss_latency::.cpu.inst    132565599                       # number of ReadReq MSHR miss cycles
system.cpu.icache.ReadReq_mshr_miss_latency::total    132565599                       # number of ReadReq MSHR miss cycles
system.cpu.icache.ReadReq_mshr_miss_rate::.cpu.inst     0.011292                       # mshr miss rate for ReadReq accesses
system.cpu.icache.ReadReq_mshr_miss_rate::total     0.011292                       # mshr miss rate for ReadReq accesses
system.cpu.icache.ReadReq_avg_mshr_miss_latency::.cpu.inst 49817.962796                       # average ReadReq mshr miss latency
system.cpu.icache.ReadReq_avg_mshr_miss_latency::total 49817.962796                       # average ReadReq mshr miss latency
system.cpu.icache.prefetcher.pwrStateResidencyTicks::UNDEFINED   1077288800                       # Cumulative time (in ticks) in various power states
system.cpu.icache.tags.pwrStateResidencyTicks::UNDEFINED   1077288800                       # Cumulative time (in ticks) in various power states
system.cpu.icache.tags.tagsinuse           253.519016                       # Cycle average of tags in use
system.cpu.icache.tags.total_refs              204152                       # Total number of references to valid blocks.
system.cpu.icache.tags.sampled_refs              2405                       # Sample count of references to valid blocks.
system.cpu.icache.tags.avg_refs             84.886486                       # Average number of references to valid blocks.
system.cpu.icache.tags.warmup_cycle             66400                       # Cycle when the warmup percentage was hit.
system.cpu.icache.tags.occ_blocks::.cpu.inst   253.519016                       # Average occupied blocks per requestor
system.cpu.icache.tags.occ_percent::.cpu.inst     0.990309                       # Average percentage of cache occupancy
system.cpu.icache.tags.occ_percent::total     0.990309                       # Average percentage of cache occupancy
system.cpu.icache.tags.occ_task_id_blocks::1024          256                       # Occupied blocks per task id
system.cpu.icache.tags.age_task_id_blocks_1024::0          118                       # Occupied blocks per task id
system.cpu.icache.tags.age_task_id_blocks_1024::1          121                       # Occupied blocks per task id
system.cpu.icache.tags.age_task_id_blocks_1024::2           17                       # Occupied blocks per task id
system.cpu.icache.tags.occ_task_id_percent::1024            1                       # Percentage of cache occupancy per task id
system.cpu.icache.tags.tag_accesses            473949                       # Number of tag accesses
system.cpu.icache.tags.data_accesses           473949                       # Number of data accesses
system.cpu.dtb.walker.pwrStateResidencyTicks::UNDEFINED   1077288800                       # Cumulative time (in ticks) in various power states
system.cpu.interrupts.clk_domain.clock           6400                       # Clock period in ticks
system.cpu.itb.walker.pwrStateResidencyTicks::UNDEFINED   1077288800                       # Cumulative time (in ticks) in various power states
system.cpu.dcache.pwrStateResidencyTicks::UNDEFINED   1077288800                       # Cumulative time (in ticks) in various power states
system.cpu.dcache.demand_hits::.cpu.data       659971                       # number of demand (read+write) hits
system.cpu.dcache.demand_hits::total           659971                       # number of demand (read+write) hits
system.cpu.dcache.overall_hits::.cpu.data       659971                       # number of overall hits
system.cpu.dcache.overall_hits::total          659971                       # number of overall hits
system.cpu.dcache.demand_misses::.cpu.data        35174                       # number of demand (read+write) misses
system.cpu.dcache.demand_misses::total          35174                       # number of demand (read+write) misses
system.cpu.dcache.overall_misses::.cpu.data        35174                       # number of overall misses
system.cpu.dcache.overall_misses::total         35174                       # number of overall misses
system.cpu.dcache.demand_miss_latency::.cpu.data   1714650400                       # number of demand (read+write) miss cycles
system.cpu.dcache.demand_miss_latency::total   1714650400                       # number of demand (read+write) miss cycles
system.cpu.dcache.overall_miss_latency::.cpu.data   1714650400                       # number of overall miss cycles
system.cpu.dcache.overall_miss_latency::total   1714650400                       # number of overall miss cycles
system.cpu.dcache.demand_accesses::.cpu.data       695145                       # number of demand (read+write) accesses
system.cpu.dcache.demand_accesses::total       695145                       # number of demand (read+write) accesses
system.cpu.dcache.overall_accesses::.cpu.data       695145                       # number of overall (read+write) accesses
system.cpu.dcache.overall_accesses::total       695145                       # number of overall (read+write) accesses
system.cpu.dcache.demand_miss_rate::.cpu.data     0.050600                       # miss rate for demand accesses
system.cpu.dcache.demand_miss_rate::total     0.050600                       # miss rate for demand accesses
system.cpu.dcache.overall_miss_rate::.cpu.data     0.050600                       # miss rate for overall accesses
system.cpu.dcache.overall_miss_rate::total     0.050600                       # miss rate for overall accesses
system.cpu.dcache.demand_avg_miss_latency::.cpu.data 48747.665890                       # average overall miss latency
system.cpu.dcache.demand_avg_miss_latency::total 48747.665890                       # average overall miss latency
system.cpu.dcache.overall_avg_miss_latency::.cpu.data 48747.665890                       # average overall miss latency
system.cpu.dcache.overall_avg_miss_latency::total 48747.665890                       # average overall miss latency
system.cpu.dcache.blocked_cycles::no_mshrs        27734                       # number of cycles access was blocked
system.cpu.dcache.blocked_cycles::no_targets          350                       # number of cycles access was blocked
system.cpu.dcache.blocked::no_mshrs               732                       # number of cycles access was blocked
system.cpu.dcache.blocked::no_targets               2                       # number of cycles access was blocked
system.cpu.dcache.avg_blocked_cycles::no_mshrs    37.887978                       # average number of cycles each access was blocked
system.cpu.dcache.avg_blocked_cycles::no_targets          175                       # average number of cycles each access was blocked
system.cpu.dcache.unused_prefetches              1639                       # number of HardPF blocks evicted w/o reference
system.cpu.dcache.writebacks::.writebacks         2752                       # number of writebacks
system.cpu.dcache.writebacks::total              2752                       # number of writebacks
system.cpu.dcache.demand_mshr_hits::.cpu.data        22575                       # number of demand (read+write) MSHR hits
system.cpu.dcache.demand_mshr_hits::total        22575                       # number of demand (read+write) MSHR hits
system.cpu.dcache.overall_mshr_hits::.cpu.data        22575                       # number of overall MSHR hits
system.cpu.dcache.overall_mshr_hits::total        22575                       # number of overall MSHR hits
system.cpu.dcache.demand_mshr_misses::.cpu.data        12599                       # number of demand (read+write) MSHR misses
system.cpu.dcache.demand_mshr_misses::total        12599                       # number of demand (read+write) MSHR misses
system.cpu.dcache.overall_mshr_misses::.cpu.data        12599                       # number of overall MSHR misses
system.cpu.dcache.overall_mshr_misses::.cpu.dcache.prefetcher         4066                       # number of overall MSHR misses
system.cpu.dcache.overall_mshr_misses::total        16665                       # number of overall MSHR misses
system.cpu.dcache.demand_mshr_miss_latency::.cpu.data    580826800                       # number of demand (read+write) MSHR miss cycles
system.cpu.dcache.demand_mshr_miss_latency::total    580826800                       # number of demand (read+write) MSHR miss cycles
system.cpu.dcache.overall_mshr_miss_latency::.cpu.data    580826800                       # number of overall MSHR miss cycles
system.cpu.dcache.overall_mshr_miss_latency::.cpu.dcache.prefetcher    238529700                       # number of overall MSHR miss cycles
system.cpu.dcache.overall_mshr_miss_latency::total    819356500                       # number of overall MSHR miss cycles
system.cpu.dcache.demand_mshr_miss_rate::.cpu.data     0.018124                       # mshr miss rate for demand accesses
system.cpu.dcache.demand_mshr_miss_rate::total     0.018124                       # mshr miss rate for demand accesses
system.cpu.dcache.overall_mshr_miss_rate::.cpu.data     0.018124                       # mshr miss rate for overall accesses
system.cpu.dcache.overall_mshr_miss_rate::.cpu.dcache.prefetcher          inf                       # mshr miss rate for overall accesses
system.cpu.dcache.overall_mshr_miss_rate::total     0.023973                       # mshr miss rate for overall accesses
system.cpu.dcache.demand_avg_mshr_miss_latency::.cpu.data 46101.023891                       # average overall mshr miss latency
system.cpu.dcache.demand_avg_mshr_miss_latency::total 46101.023891                       # average overall mshr miss latency
system.cpu.dcache.overall_avg_mshr_miss_latency::.cpu.data 46101.023891                       # average overall mshr miss latency
system.cpu.dcache.overall_avg_mshr_miss_latency::.cpu.dcache.prefetcher 58664.461387                       # average overall mshr miss latency
system.cpu.dcache.overall_avg_mshr_miss_latency::total 49166.306631                       # average overall mshr miss latency
system.cpu.dcache.replacements                  15641                       # number of replacements
system.cpu.dcache.ReadReq_hits::.cpu.data       494472                       # number of ReadReq hits
system.cpu.dcache.ReadReq_hits::total          494472                       # number of ReadReq hits
system.cpu.dcache.ReadReq_misses::.cpu.data        33086                       # number of ReadReq misses
system.cpu.dcache.ReadReq_misses::total         33086                       # number of ReadReq misses
system.cpu.dcache.ReadReq_miss_latency::.cpu.data   1611695200                       # number of ReadReq miss cycles
system.cpu.dcache.ReadReq_miss_latency::total   1611695200                       # number of ReadReq miss cycles
system.cpu.dcache.ReadReq_accesses::.cpu.data       527558                       # number of ReadReq accesses(hits+misses)
system.cpu.dcache.ReadReq_accesses::total       527558                       # number of ReadReq accesses(hits+misses)
system.cpu.dcache.ReadReq_miss_rate::.cpu.data     0.062715                       # miss rate for ReadReq accesses
system.cpu.dcache.ReadReq_miss_rate::total     0.062715                       # miss rate for ReadReq accesses
system.cpu.dcache.ReadReq_avg_miss_latency::.cpu.data 48712.301275                       # average ReadReq miss latency
system.cpu.dcache.ReadReq_avg_miss_latency::total 48712.301275                       # average ReadReq miss latency
system.cpu.dcache.ReadReq_mshr_hits::.cpu.data        22532                       # number of ReadReq MSHR hits
system.cpu.dcache.ReadReq_mshr_hits::total        22532                       # number of ReadReq MSHR hits
system.cpu.dcache.ReadReq_mshr_misses::.cpu.data        10554                       # number of ReadReq MSHR misses
system.cpu.dcache.ReadReq_mshr_misses::total        10554                       # number of ReadReq MSHR misses
system.cpu.dcache.ReadReq_mshr_miss_latency::.cpu.data    481486400                       # number of ReadReq MSHR miss cycles
system.cpu.dcache.ReadReq_mshr_miss_latency::total    481486400                       # number of ReadReq MSHR miss cycles
system.cpu.dcache.ReadReq_mshr_miss_rate::.cpu.data     0.020005                       # mshr miss rate for ReadReq accesses
system.cpu.dcache.ReadReq_mshr_miss_rate::total     0.020005                       # mshr miss rate for ReadReq accesses
system.cpu.dcache.ReadReq_avg_mshr_miss_latency::.cpu.data 45621.224180                       # average ReadReq mshr miss latency
system.cpu.dcache.ReadReq_avg_mshr_miss_latency::total 45621.224180                       # average ReadReq mshr miss latency
system.cpu.dcache.WriteReq_hits::.cpu.data       165499                       # number of WriteReq hits
system.cpu.dcache.WriteReq_hits::total         165499                       # number of WriteReq hits
system.cpu.dcache.WriteReq_misses::.cpu.data         2088                       # number of WriteReq misses
system.cpu.dcache.WriteReq_misses::total         2088                       # number of WriteReq misses
system.cpu.dcache.WriteReq_miss_latency::.cpu.data    102955200                       # number of WriteReq miss cycles
system.cpu.dcache.WriteReq_miss_latency::total    102955200                       # number of WriteReq miss cycles
system.cpu.dcache.WriteReq_accesses::.cpu.data       167587                       # number of WriteReq accesses(hits+misses)
system.cpu.dcache.WriteReq_accesses::total       167587                       # number of WriteReq accesses(hits+misses)
system.cpu.dcache.WriteReq_miss_rate::.cpu.data     0.012459                       # miss rate for WriteReq accesses
system.cpu.dcache.WriteReq_miss_rate::total     0.012459                       # miss rate for WriteReq accesses
system.cpu.dcache.WriteReq_avg_miss_latency::.cpu.data 49308.045977                       # average WriteReq miss latency
system.cpu.dcache.WriteReq_avg_miss_latency::total 49308.045977                       # average WriteReq miss latency
system.cpu.dcache.WriteReq_mshr_hits::.cpu.data           43                       # number of WriteReq MSHR hits
system.cpu.dcache.WriteReq_mshr_hits::total           43                       # number of WriteReq MSHR hits
system.cpu.dcache.WriteReq_mshr_misses::.cpu.data         2045                       # number of WriteReq MSHR misses
system.cpu.dcache.WriteReq_mshr_misses::total         2045                       # number of WriteReq MSHR misses
system.cpu.dcache.WriteReq_mshr_miss_latency::.cpu.data     99340400                       # number of WriteReq MSHR miss cycles
[...]
system.l2cache.demand_mshr_miss_rate::.cpu.data     0.427332                       # mshr miss rate for demand accesses
system.l2cache.demand_mshr_miss_rate::.cpu.dcache.prefetcher     0.696970                       # mshr miss rate for demand accesses
system.l2cache.demand_mshr_miss_rate::total     0.557522                       # mshr miss rate for demand accesses
system.l2cache.overall_mshr_miss_rate::.cpu.inst     0.641791                       # mshr miss rate for overall accesses
system.l2cache.overall_mshr_miss_rate::.cpu.data     0.427332                       # mshr miss rate for overall accesses
system.l2cache.overall_mshr_miss_rate::.cpu.dcache.prefetcher     0.696970                       # mshr miss rate for overall accesses
system.l2cache.overall_mshr_miss_rate::.l2cache.prefetcher          inf                       # mshr miss rate for overall accesses
system.l2cache.overall_mshr_miss_rate::total     0.562832                       # mshr miss rate for overall accesses
system.l2cache.demand_avg_mshr_miss_latency::.cpu.inst 59719.896641                       # average overall mshr miss latency
system.l2cache.demand_avg_mshr_miss_latency::.cpu.data 59961.421320                       # average overall mshr miss latency
system.l2cache.demand_avg_mshr_miss_latency::.cpu.dcache.prefetcher 62529.500000                       # average overall mshr miss latency
system.l2cache.demand_avg_mshr_miss_latency::total 60000.566667                       # average overall mshr miss latency
system.l2cache.overall_avg_mshr_miss_latency::.cpu.inst 59719.896641                       # average overall mshr miss latency
system.l2cache.overall_avg_mshr_miss_latency::.cpu.data 59961.421320                       # average overall mshr miss latency
system.l2cache.overall_avg_mshr_miss_latency::.cpu.dcache.prefetcher 62529.500000                       # average overall mshr miss latency
system.l2cache.overall_avg_mshr_miss_latency::.l2cache.prefetcher 54265.333333                       # average overall mshr miss latency
system.l2cache.overall_avg_mshr_miss_latency::total 59946.460692                       # average overall mshr miss latency
system.l2cache.replacements                       642                       # number of replacements
system.l2cache.WritebackDirty_hits::.writebacks          383                       # number of WritebackDirty hits
system.l2cache.WritebackDirty_hits::total          383                       # number of WritebackDirty hits
system.l2cache.WritebackDirty_accesses::.writebacks          383                       # number of WritebackDirty accesses(hits+misses)
system.l2cache.WritebackDirty_accesses::total          383                       # number of WritebackDirty accesses(hits+misses)
system.l2cache.CleanEvict_mshr_misses::.writebacks           20                       # number of CleanEvict MSHR misses
system.l2cache.CleanEvict_mshr_misses::total           20                       # number of CleanEvict MSHR misses
system.l2cache.CleanEvict_mshr_miss_rate::.writebacks          inf                       # mshr miss rate for CleanEvict accesses
system.l2cache.CleanEvict_mshr_miss_rate::total          inf                       # mshr miss rate for CleanEvict accesses
system.l2cache.HardPFReq_mshr_misses::.l2cache.prefetcher            6                       # number of HardPFReq MSHR misses
system.l2cache.HardPFReq_mshr_misses::total            6                       # number of HardPFReq MSHR misses
system.l2cache.HardPFReq_mshr_miss_latency::.l2cache.prefetcher       325592                       # number of HardPFReq MSHR miss cycles
system.l2cache.HardPFReq_mshr_miss_latency::total       325592                       # number of HardPFReq MSHR miss cycles
system.l2cache.HardPFReq_mshr_miss_rate::.l2cache.prefetcher          inf                       # mshr miss rate for HardPFReq accesses
system.l2cache.HardPFReq_mshr_miss_rate::total          inf                       # mshr miss rate for HardPFReq accesses
system.l2cache.HardPFReq_avg_mshr_miss_latency::.l2cache.prefetcher 54265.333333                       # average HardPFReq mshr miss latency
system.l2cache.HardPFReq_avg_mshr_miss_latency::total 54265.333333                       # average HardPFReq mshr miss latency
system.l2cache.ReadExReq_hits::.cpu.data           21                       # number of ReadExReq hits
system.l2cache.ReadExReq_hits::total               21                       # number of ReadExReq hits
system.l2cache.ReadExReq_misses::.cpu.data           25                       # number of ReadExReq misses
system.l2cache.ReadExReq_misses::total             25                       # number of ReadExReq misses
system.l2cache.ReadExReq_miss_latency::.cpu.data      1676800                       # number of ReadExReq miss cycles
system.l2cache.ReadExReq_miss_latency::total      1676800                       # number of ReadExReq miss cycles
system.l2cache.ReadExReq_accesses::.cpu.data           46                       # number of ReadExReq accesses(hits+misses)
system.l2cache.ReadExReq_accesses::total           46                       # number of ReadExReq accesses(hits+misses)
system.l2cache.ReadExReq_miss_rate::.cpu.data     0.543478                       # miss rate for ReadExReq accesses
system.l2cache.ReadExReq_miss_rate::total     0.543478                       # miss rate for ReadExReq accesses
system.l2cache.ReadExReq_avg_miss_latency::.cpu.data        67072                       # average ReadExReq miss latency
system.l2cache.ReadExReq_avg_miss_latency::total        67072                       # average ReadExReq miss latency
system.l2cache.ReadExReq_mshr_misses::.cpu.data           25                       # number of ReadExReq MSHR misses
system.l2cache.ReadExReq_mshr_misses::total           25                       # number of ReadExReq MSHR misses
system.l2cache.ReadExReq_mshr_miss_latency::.cpu.data      1476800                       # number of ReadExReq MSHR miss cycles
system.l2cache.ReadExReq_mshr_miss_latency::total      1476800                       # number of ReadExReq MSHR miss cycles
system.l2cache.ReadExReq_mshr_miss_rate::.cpu.data     0.543478                       # mshr miss rate for ReadExReq accesses
system.l2cache.ReadExReq_mshr_miss_rate::total     0.543478                       # mshr miss rate for ReadExReq accesses
system.l2cache.ReadExReq_avg_mshr_miss_latency::.cpu.data        59072                       # average ReadExReq mshr miss latency
system.l2cache.ReadExReq_avg_mshr_miss_latency::total        59072                       # average ReadExReq mshr miss latency
system.l2cache.ReadSharedReq_hits::.cpu.inst          216                       # number of ReadSharedReq hits
system.l2cache.ReadSharedReq_hits::.cpu.data          242                       # number of ReadSharedReq hits
system.l2cache.ReadSharedReq_hits::.cpu.dcache.prefetcher           20                       # number of ReadSharedReq hits
system.l2cache.ReadSharedReq_hits::total          478                       # number of ReadSharedReq hits
system.l2cache.ReadSharedReq_misses::.cpu.inst          387                       # number of ReadSharedReq misses
system.l2cache.ReadSharedReq_misses::.cpu.data          173                       # number of ReadSharedReq misses
system.l2cache.ReadSharedReq_misses::.cpu.dcache.prefetcher           46                       # number of ReadSharedReq misses
system.l2cache.ReadSharedReq_misses::total          606                       # number of ReadSharedReq misses
system.l2cache.ReadSharedReq_miss_latency::.cpu.inst     26199600                       # number of ReadSharedReq miss cycles
system.l2cache.ReadSharedReq_miss_latency::.cpu.data     11768000                       # number of ReadSharedReq miss cycles
system.l2cache.ReadSharedReq_miss_latency::.cpu.dcache.prefetcher      3244357                       # number of ReadSharedReq miss cycles
system.l2cache.ReadSharedReq_miss_latency::total     41211957                       # number of ReadSharedReq miss cycles
system.l2cache.ReadSharedReq_accesses::.cpu.inst          603                       # number of ReadSharedReq accesses(hits+misses)
system.l2cache.ReadSharedReq_accesses::.cpu.data          415                       # number of ReadSharedReq accesses(hits+misses)
system.l2cache.ReadSharedReq_accesses::.cpu.dcache.prefetcher           66                       # number of ReadSharedReq accesses(hits+misses)
system.l2cache.ReadSharedReq_accesses::total         1084                       # number of ReadSharedReq accesses(hits+misses)
system.l2cache.ReadSharedReq_miss_rate::.cpu.inst     0.641791                       # miss rate for ReadSharedReq accesses
system.l2cache.ReadSharedReq_miss_rate::.cpu.data     0.416867                       # miss rate for ReadSharedReq accesses
system.l2cache.ReadSharedReq_miss_rate::.cpu.dcache.prefetcher     0.696970                       # miss rate for ReadSharedReq accesses
system.l2cache.ReadSharedReq_miss_rate::total     0.559041                       # miss rate for ReadSharedReq accesses
system.l2cache.ReadSharedReq_avg_miss_latency::.cpu.inst 67699.224806                       # average ReadSharedReq miss latency
system.l2cache.ReadSharedReq_avg_miss_latency::.cpu.data 68023.121387                       # average ReadSharedReq miss latency
system.l2cache.ReadSharedReq_avg_miss_latency::.cpu.dcache.prefetcher 70529.500000                       # average ReadSharedReq miss latency
system.l2cache.ReadSharedReq_avg_miss_latency::total 68006.529703                       # average ReadSharedReq miss latency
system.l2cache.ReadSharedReq_mshr_hits::.cpu.data            1                       # number of ReadSharedReq MSHR hits
system.l2cache.ReadSharedReq_mshr_hits::total            1                       # number of ReadSharedReq MSHR hits
system.l2cache.ReadSharedReq_mshr_misses::.cpu.inst          387                       # number of ReadSharedReq MSHR misses
system.l2cache.ReadSharedReq_mshr_misses::.cpu.data          172                       # number of ReadSharedReq MSHR misses
system.l2cache.ReadSharedReq_mshr_misses::.cpu.dcache.prefetcher           46                       # number of ReadSharedReq MSHR misses
system.l2cache.ReadSharedReq_mshr_misses::total          605                       # number of ReadSharedReq MSHR misses
system.l2cache.ReadSharedReq_mshr_miss_latency::.cpu.inst     23111600                       # number of ReadSharedReq MSHR miss cycles
system.l2cache.ReadSharedReq_mshr_miss_latency::.cpu.data     10335600                       # number of ReadSharedReq MSHR miss cycles
system.l2cache.ReadSharedReq_mshr_miss_latency::.cpu.dcache.prefetcher      2876357                       # number of ReadSharedReq MSHR miss cycles
system.l2cache.ReadSharedReq_mshr_miss_latency::total     36323557                       # number of ReadSharedReq MSHR miss cycles
system.l2cache.ReadSharedReq_mshr_miss_rate::.cpu.inst     0.641791                       # mshr miss rate for ReadSharedReq accesses
system.l2cache.ReadSharedReq_mshr_miss_rate::.cpu.data     0.414458                       # mshr miss rate for ReadSharedReq accesses
system.l2cache.ReadSharedReq_mshr_miss_rate::.cpu.dcache.prefetcher     0.696970                       # mshr miss rate for ReadSharedReq accesses
system.l2cache.ReadSharedReq_mshr_miss_rate::total     0.558118                       # mshr miss rate for ReadSharedReq accesses
system.l2cache.ReadSharedReq_avg_mshr_miss_latency::.cpu.inst 59719.896641                       # average ReadSharedReq mshr miss latency
system.l2cache.ReadSharedReq_avg_mshr_miss_latency::.cpu.data 60090.697674                       # average ReadSharedReq mshr miss latency
system.l2cache.ReadSharedReq_avg_mshr_miss_latency::.cpu.dcache.prefetcher 62529.500000                       # average ReadSharedReq mshr miss latency
system.l2cache.ReadSharedReq_avg_mshr_miss_latency::total 60038.937190                       # average ReadSharedReq mshr miss latency
system.l2cache.prefetcher.pwrStateResidencyTicks::UNDEFINED     46585600                       # Cumulative time (in ticks) in various power states
system.l2cache.tags.pwrStateResidencyTicks::UNDEFINED     46585600                       # Cumulative time (in ticks) in various power states
system.l2cache.tags.tagsinuse                    4096                       # Cycle average of tags in use
system.l2cache.tags.total_refs                  13760                       # Total number of references to valid blocks.
system.l2cache.tags.sampled_refs                 4738                       # Sample count of references to valid blocks.
system.l2cache.tags.avg_refs                 2.904179                       # Average number of references to valid blocks.
system.l2cache.tags.warmup_cycle                    0                       # Cycle when the warmup percentage was hit.
system.l2cache.tags.occ_blocks::.writebacks    58.383209                       # Average occupied blocks per requestor
system.l2cache.tags.occ_blocks::.cpu.inst   935.734401                       # Average occupied blocks per requestor
system.l2cache.tags.occ_blocks::.cpu.data  1918.814912                       # Average occupied blocks per requestor
system.l2cache.tags.occ_blocks::.cpu.dcache.prefetcher   774.800246                       # Average occupied blocks per requestor
system.l2cache.tags.occ_blocks::.l2cache.prefetcher   408.267233                       # Average occupied blocks per requestor
system.l2cache.tags.occ_percent::.writebacks     0.014254                       # Average percentage of cache occupancy
system.l2cache.tags.occ_percent::.cpu.inst     0.228451                       # Average percentage of cache occupancy
system.l2cache.tags.occ_percent::.cpu.data     0.468461                       # Average percentage of cache occupancy
system.l2cache.tags.occ_percent::.cpu.dcache.prefetcher     0.189160                       # Average percentage of cache occupancy
system.l2cache.tags.occ_percent::.l2cache.prefetcher     0.099675                       # Average percentage of cache occupancy
system.l2cache.tags.occ_percent::total              1                       # Average percentage of cache occupancy
system.l2cache.tags.occ_task_id_blocks::1022         1106                       # Occupied blocks per task id
system.l2cache.tags.occ_task_id_blocks::1024         2990                       # Occupied blocks per task id
system.l2cache.tags.age_task_id_blocks_1022::0            9                       # Occupied blocks per task id
system.l2cache.tags.age_task_id_blocks_1022::1          345                       # Occupied blocks per task id
system.l2cache.tags.age_task_id_blocks_1022::2          749                       # Occupied blocks per task id
system.l2cache.tags.age_task_id_blocks_1022::3            3                       # Occupied blocks per task id
system.l2cache.tags.age_task_id_blocks_1024::0          177                       # Occupied blocks per task id
system.l2cache.tags.age_task_id_blocks_1024::1          749                       # Occupied blocks per task id
system.l2cache.tags.age_task_id_blocks_1024::2         1988                       # Occupied blocks per task id
system.l2cache.tags.age_task_id_blocks_1024::3           76                       # Occupied blocks per task id
system.l2cache.tags.occ_task_id_percent::1022     0.270020                       # Percentage of cache occupancy per task id
system.l2cache.tags.occ_task_id_percent::1024     0.729980                       # Percentage of cache occupancy per task id
system.l2cache.tags.tag_accesses                18658                       # Number of tag accesses
system.l2cache.tags.data_accesses               18658                       # Number of data accesses
system.mem_ctrl.pwrStateResidencyTicks::UNDEFINED     46585600                       # Cumulative time (in ticks) in various power states
system.mem_ctrl.bytes_read::.cpu.inst           24704                       # Number of bytes read from this memory
system.mem_ctrl.bytes_read::.cpu.data           12608                       # Number of bytes read from this memory
system.mem_ctrl.bytes_read::.cpu.dcache.prefetcher         2944                       # Number of bytes read from this memory
system.mem_ctrl.bytes_read::.l2cache.prefetcher          384                       # Number of bytes read from this memory
system.mem_ctrl.bytes_read::total               40640                       # Number of bytes read from this memory
system.mem_ctrl.bytes_inst_read::.cpu.inst        24704                       # Number of instructions bytes read from this memory
system.mem_ctrl.bytes_inst_read::total          24704                       # Number of instructions bytes read from this memory
system.mem_ctrl.bytes_written::.writebacks         3264                       # Number of bytes written to this memory
system.mem_ctrl.bytes_written::total             3264                       # Number of bytes written to this memory
system.mem_ctrl.num_reads::.cpu.inst              386                       # Number of read requests responded to by this memory
system.mem_ctrl.num_reads::.cpu.data              197                       # Number of read requests responded to by this memory
system.mem_ctrl.num_reads::.cpu.dcache.prefetcher           46                       # Number of read requests responded to by this memory
system.mem_ctrl.num_reads::.l2cache.prefetcher            6                       # Number of read requests responded to by this memory
system.mem_ctrl.num_reads::total                  635                       # Number of read requests responded to by this memory
system.mem_ctrl.num_writes::.writebacks            51                       # Number of write requests responded to by this memory
system.mem_ctrl.num_writes::total                  51                       # Number of write requests responded to by this memory
system.mem_ctrl.bw_read::.cpu.inst          530292623                       # Total read bandwidth from this memory (bytes/s)
system.mem_ctrl.bw_read::.cpu.data          270641572                       # Total read bandwidth from this memory (bytes/s)
system.mem_ctrl.bw_read::.cpu.dcache.prefetcher     63195494                       # Total read bandwidth from this memory (bytes/s)
system.mem_ctrl.bw_read::.l2cache.prefetcher      8242891                       # Total read bandwidth from this memory (bytes/s)
system.mem_ctrl.bw_read::total              872372579                       # Total read bandwidth from this memory (bytes/s)
system.mem_ctrl.bw_inst_read::.cpu.inst     530292623                       # Instruction read bandwidth from this memory (bytes/s)
system.mem_ctrl.bw_inst_read::total         530292623                       # Instruction read bandwidth from this memory (bytes/s)
system.mem_ctrl.bw_write::.writebacks        70064569                       # Write bandwidth from this memory (bytes/s)
system.mem_ctrl.bw_write::total              70064569                       # Write bandwidth from this memory (bytes/s)
system.mem_ctrl.bw_total::.writebacks        70064569                       # Total bandwidth to/from this memory (bytes/s)
system.mem_ctrl.bw_total::.cpu.inst         530292623                       # Total bandwidth to/from this memory (bytes/s)
system.mem_ctrl.bw_total::.cpu.data         270641572                       # Total bandwidth to/from this memory (bytes/s)
system.mem_ctrl.bw_total::.cpu.dcache.prefetcher     63195494                       # Total bandwidth to/from this memory (bytes/s)
system.mem_ctrl.bw_total::.l2cache.prefetcher      8242891                       # Total bandwidth to/from this memory (bytes/s)
system.mem_ctrl.bw_total::total             942437148                       # Total bandwidth to/from this memory (bytes/s)

---------- End Simulation Statistics   ----------
