
---------- Begin Simulation Statistics ----------
final_tick                                 1919034800                       # Number of ticks from beginning of simulation (restored from checkpoints and never reset)
host_inst_rate                                 198049                       # Simulator instruction rate (inst/s)
host_mem_usage                                4406836                       # Number of bytes of host memory used
host_op_rate                                   362194                       # Simulator op (including micro ops) rate (op/s)
host_seconds                                    22.47                       # Real time elapsed on the host
host_tick_rate                               85418810                       # Simulator tick rate (ticks/s)
sim_freq                                 1000000000000                       # Frequency of simulated ticks
sim_insts                                     4449337                       # Number of instructions simulated
sim_ops                                       8137104                       # Number of ops (including micro ops) simulated
sim_seconds                                  0.001919                       # Number of seconds simulated
sim_ticks                                  1919034800                       # Number of ticks simulated
system.cpu.branchPred.BTBCorrect                    0                       # Number of correct BTB predictions (this stat may not work properly.
system.cpu.branchPred.BTBHitPct              0.000000                       # BTB Hit Percentage
system.cpu.branchPred.BTBHits                       0                       # Number of BTB hits
system.cpu.branchPred.BTBLookups               902394                       # Number of BTB lookups
system.cpu.branchPred.RASInCorrect                  6                       # Number of incorrect RAS predictions.
system.cpu.branchPred.condIncorrect             37276                       # Number of conditional branches incorrect
system.cpu.branchPred.condPredicted            923151                       # Number of conditional branches predicted
system.cpu.branchPred.indirectHits             483597                       # Number of indirect target hits.
system.cpu.branchPred.indirectLookups          902394                       # Number of indirect predictor lookups.
system.cpu.branchPred.indirectMisses           418797                       # Number of indirect misses.
system.cpu.branchPred.lookups                 1025651                       # Number of BP lookups
system.cpu.branchPred.usedRAS                   50098                       # Number of times the RAS was used to get a target.
system.cpu.branchPredindirectMispredicted        20346                       # Number of mispredicted indirect branches.
system.cpu.cc_regfile_reads                   4991511                       # number of cc regfile reads
system.cpu.cc_regfile_writes                  3512176                       # number of cc regfile writes
system.cpu.commit.amos                              0                       # Number of atomic instructions committed
system.cpu.commit.branchMispredicts             37379                       # The number of times a branch was mispredicted
system.cpu.commit.branches                     825806                       # Number of branches committed
system.cpu.commit.bw_lim_events               1295338                       # number cycles where commit BW limit reached
system.cpu.commit.commitNonSpecStalls             748                       # The number of times commit has been forced to stall to communicate backwards
system.cpu.commit.commitSquashedInsts         1170683                       # The number of squashed insts skipped by commit
system.cpu.commit.committedInsts              4449337                       # Number of instructions committed
system.cpu.commit.committedOps                8137104                       # Number of ops (including micro ops) committed
system.cpu.commit.committed_per_cycle::samples      4308521                       # Number of insts commited each cycle
system.cpu.commit.committed_per_cycle::mean     1.888607                       # Number of insts commited each cycle
system.cpu.commit.committed_per_cycle::stdev     1.683299                       # Number of insts commited each cycle
system.cpu.commit.committed_per_cycle::underflows            0      0.00%      0.00% # Number of insts commited each cycle
system.cpu.commit.committed_per_cycle::0      1496005     34.72%     34.72% # Number of insts commited each cycle
system.cpu.commit.committed_per_cycle::1       587435     13.63%     48.36% # Number of insts commited each cycle
system.cpu.commit.committed_per_cycle::2       420912      9.77%     58.13% # Number of insts commited each cycle
system.cpu.commit.committed_per_cycle::3       508831     11.81%     69.94% # Number of insts commited each cycle
system.cpu.commit.committed_per_cycle::4      1295338     30.06%    100.00% # Number of insts commited each cycle
system.cpu.commit.committed_per_cycle::overflows            0      0.00%    100.00% # Number of insts commited each cycle
system.cpu.commit.committed_per_cycle::min_value            0                       # Number of insts commited each cycle
system.cpu.commit.committed_per_cycle::max_value            4                       # Number of insts commited each cycle
system.cpu.commit.committed_per_cycle::total      4308521                       # Number of insts commited each cycle
system.cpu.commit.fp_insts                     223155                       # Number of committed floating point instructions.
system.cpu.commit.function_calls                45994                       # Number of function calls committed.
system.cpu.commit.int_insts                   7955192                       # Number of committed integer instructions.
system.cpu.commit.loads                       1032070                       # Number of loads committed
system.cpu.commit.membars                           1                       # Number of memory barriers committed
system.cpu.commit.op_class_0::No_OpClass        36813      0.45%      0.45% # Class of committed instruction
system.cpu.commit.op_class_0::IntAlu          6324401     77.72%     78.18% # Class of committed instruction
system.cpu.commit.op_class_0::IntMult           27783      0.34%     78.52% # Class of committed instruction
system.cpu.commit.op_class_0::IntDiv            38375      0.47%     78.99% # Class of committed instruction
system.cpu.commit.op_class_0::FloatAdd           8995      0.11%     79.10% # Class of committed instruction
system.cpu.commit.op_class_0::FloatCmp              0      0.00%     79.10% # Class of committed instruction
system.cpu.commit.op_class_0::FloatCvt           1216      0.01%     79.11% # Class of committed instruction
system.cpu.commit.op_class_0::FloatMult             0      0.00%     79.11% # Class of committed instruction
system.cpu.commit.op_class_0::FloatMultAcc            0      0.00%     79.11% # Class of committed instruction
system.cpu.commit.op_class_0::FloatDiv              0      0.00%     79.11% # Class of committed instruction
system.cpu.commit.op_class_0::FloatMisc             0      0.00%     79.11% # Class of committed instruction
system.cpu.commit.op_class_0::FloatSqrt             0      0.00%     79.11% # Class of committed instruction
system.cpu.commit.op_class_0::SimdAdd            6238      0.08%     79.19% # Class of committed instruction
system.cpu.commit.op_class_0::SimdAddAcc            0      0.00%     79.19% # Class of committed instruction
system.cpu.commit.op_class_0::SimdAlu           35825      0.44%     79.63% # Class of committed instruction
system.cpu.commit.op_class_0::SimdCmp               0      0.00%     79.63% # Class of committed instruction
system.cpu.commit.op_class_0::SimdCvt           36744      0.45%     80.08% # Class of committed instruction
system.cpu.commit.op_class_0::SimdMisc          61844      0.76%     80.84% # Class of committed instruction
system.cpu.commit.op_class_0::SimdMult              0      0.00%     80.84% # Class of committed instruction
system.cpu.commit.op_class_0::SimdMultAcc            0      0.00%     80.84% # Class of committed instruction
system.cpu.commit.op_class_0::SimdShift          1184      0.01%     80.86% # Class of committed instruction
system.cpu.commit.op_class_0::SimdShiftAcc            0      0.00%     80.86% # Class of committed instruction
system.cpu.commit.op_class_0::SimdDiv               0      0.00%     80.86% # Class of committed instruction
system.cpu.commit.op_class_0::SimdSqrt              0      0.00%     80.86% # Class of committed instruction
system.cpu.commit.op_class_0::SimdFloatAdd            0      0.00%     80.86% # Class of committed instruction
system.cpu.commit.op_class_0::SimdFloatAlu            0      0.00%     80.86% # Class of committed instruction
system.cpu.commit.op_class_0::SimdFloatCmp            0      0.00%     80.86% # Class of committed instruction
system.cpu.commit.op_class_0::SimdFloatCvt            0      0.00%     80.86% # Class of committed instruction
system.cpu.commit.op_class_0::SimdFloatDiv            0      0.00%     80.86% # Class of committed instruction
system.cpu.commit.op_class_0::SimdFloatMisc            0      0.00%     80.86% # Class of committed instruction
system.cpu.commit.op_class_0::SimdFloatMult            0      0.00%     80.86% # Class of committed instruction
system.cpu.commit.op_class_0::SimdFloatMultAcc            0      0.00%     80.86% # Class of committed instruction
system.cpu.commit.op_class_0::SimdFloatSqrt            0      0.00%     80.86% # Class of committed instruction
system.cpu.commit.op_class_0::SimdReduceAdd            0      0.00%     80.86% # Class of committed instruction
system.cpu.commit.op_class_0::SimdReduceAlu            0      0.00%     80.86% # Class of committed instruction
system.cpu.commit.op_class_0::SimdReduceCmp            0      0.00%     80.86% # Class of committed instruction
system.cpu.commit.op_class_0::SimdFloatReduceAdd            0      0.00%     80.86% # Class of committed instruction
system.cpu.commit.op_class_0::SimdFloatReduceCmp            0      0.00%     80.86% # Class of committed instruction
system.cpu.commit.op_class_0::SimdAes               0      0.00%     80.86% # Class of committed instruction
system.cpu.commit.op_class_0::SimdAesMix            0      0.00%     80.86% # Class of committed instruction
system.cpu.commit.op_class_0::SimdSha1Hash            0      0.00%     80.86% # Class of committed instruction
system.cpu.commit.op_class_0::SimdSha1Hash2            0      0.00%     80.86% # Class of committed instruction
system.cpu.commit.op_class_0::SimdSha256Hash            0      0.00%     80.86% # Class of committed instruction
system.cpu.commit.op_class_0::SimdSha256Hash2            0      0.00%     80.86% # Class of committed instruction
system.cpu.commit.op_class_0::SimdShaSigma2            0      0.00%     80.86% # Class of committed instruction
system.cpu.commit.op_class_0::SimdShaSigma3            0      0.00%     80.86% # Class of committed instruction
system.cpu.commit.op_class_0::SimdPredAlu            0      0.00%     80.86% # Class of committed instruction
system.cpu.commit.op_class_0::MemRead          996464     12.25%     93.10% # Class of committed instruction
system.cpu.commit.op_class_0::MemWrite         509409      6.26%     99.36% # Class of committed instruction
system.cpu.commit.op_class_0::FloatMemRead        35606      0.44%     99.80% # Class of committed instruction
system.cpu.commit.op_class_0::FloatMemWrite        16207      0.20%    100.00% # Class of committed instruction
system.cpu.commit.op_class_0::IprAccess             0      0.00%    100.00% # Class of committed instruction
system.cpu.commit.op_class_0::InstPrefetch            0      0.00%    100.00% # Class of committed instruction
system.cpu.commit.op_class_0::total           8137104                       # Class of committed instruction
system.cpu.commit.refs                        1557686                       # Number of memory references committed
system.cpu.commit.swp_count                         0                       # Number of s/w prefetches committed
system.cpu.commit.vec_insts                         0                       # Number of committed Vector instructions.
system.cpu.committedInsts                     4449337                       # Number of Instructions Simulated
system.cpu.committedOps                       8137104                       # Number of Ops (including micro ops) Simulated
system.cpu.cpi                               1.078270                       # CPI: Cycles Per Instruction
system.cpu.cpi_total                         1.078270                       # CPI: Total CPI of All Threads
system.cpu.dcache.prefetcher.num_hwpf_issued         8089                       # number of hwpf issued
system.cpu.dcache.prefetcher.pfBufferHit        34455                       # number of redundant prefetches already in prefetch queue
system.cpu.dcache.prefetcher.pfIdentified        49873                       # number of prefetch candidates identified
system.cpu.dcache.prefetcher.pfInCache              0                       # number of redundant prefetches already in cache/mshr dropped
system.cpu.dcache.prefetcher.pfRemovedFull            0                       # number of prefetches dropped due to prefetch queue size
system.cpu.dcache.prefetcher.pfSpanPage          4503                       # number of prefetches that crossed the page
system.cpu.decode.BlockedCycles               1114923                       # Number of cycles decode is blocked
system.cpu.decode.DecodedInsts                9629681                       # Number of instructions handled by decode
system.cpu.decode.IdleCycles                   838109                       # Number of cycles decode is idle
system.cpu.decode.RunCycles                   2525737                       # Number of cycles decode is running
system.cpu.decode.SquashCycles                  37473                       # Number of cycles decode is squashing
system.cpu.decode.UnblockCycles                111317                       # Number of cycles decode is unblocking
system.cpu.dtb.rdAccesses                     1143268                       # TLB accesses on read requests
system.cpu.dtb.rdMisses                          1975                       # TLB misses on read requests
system.cpu.dtb.wrAccesses                      553704                       # TLB accesses on write requests
system.cpu.dtb.wrMisses                           150                       # TLB misses on write requests
system.cpu.fetch.Branches                     1025651                       # Number of branches that fetch encountered
system.cpu.fetch.CacheLines                    672140                       # Number of cache lines fetched
system.cpu.fetch.Cycles                       3723703                       # Number of cycles fetch has run and was not squashing or blocked
system.cpu.fetch.IcacheSquashes                  5886                       # Number of outstanding Icache misses that were squashed
system.cpu.fetch.Insts                        5441088                       # Number of instructions fetch has processed
system.cpu.fetch.MiscStallCycles                  128                       # Number of cycles fetch has spent waiting on interrupts, or bad addresses, or out of MSHRs
system.cpu.fetch.PendingQuiesceStallCycles            8                       # Number of stall cycles due to pending quiesce instructions
system.cpu.fetch.PendingTrapStallCycles           750                       # Number of stall cycles due to pending traps
system.cpu.fetch.SquashCycles                   74946                       # Number of cycles fetch has spent squashing
system.cpu.fetch.branchRate                  0.213785                       # Number of branch fetches per cycle
system.cpu.fetch.icacheStallCycles             865497                       # Number of cycles fetch is stalled on an Icache miss
system.cpu.fetch.predictedBranches             533695                       # Number of branches that fetch has predicted taken
system.cpu.fetch.rate                        1.134130                       # Number of inst fetches per cycle
system.cpu.fetch.rateDist::samples            4627559                       # Number of instructions fetched each cycle (Total)
system.cpu.fetch.rateDist::mean              2.147992                       # Number of instructions fetched each cycle (Total)
system.cpu.fetch.rateDist::stdev             1.897097                       # Number of instructions fetched each cycle (Total)
system.cpu.fetch.rateDist::underflows               0      0.00%      0.00% # Number of instructions fetched each cycle (Total)
system.cpu.fetch.rateDist::0                  1849275     39.96%     39.96% # Number of instructions fetched each cycle (Total)
system.cpu.fetch.rateDist::1                   250754      5.42%     45.38% # Number of instructions fetched each cycle (Total)
system.cpu.fetch.rateDist::2                   130296      2.82%     48.20% # Number of instructions fetched each cycle (Total)
system.cpu.fetch.rateDist::3                   160323      3.46%     51.66% # Number of instructions fetched each cycle (Total)
system.cpu.fetch.rateDist::4                  2236911     48.34%    100.00% # Number of instructions fetched each cycle (Total)
system.cpu.fetch.rateDist::overflows                0      0.00%    100.00% # Number of instructions fetched each cycle (Total)
system.cpu.fetch.rateDist::min_value                0                       # Number of instructions fetched each cycle (Total)
system.cpu.fetch.rateDist::max_value                4                       # Number of instructions fetched each cycle (Total)
system.cpu.fetch.rateDist::total              4627559                       # Number of instructions fetched each cycle (Total)
system.cpu.fp_regfile_reads                    375164                       # number of floating regfile reads
system.cpu.fp_regfile_writes                   198520                       # number of floating regfile writes
system.cpu.fuPool.fu_ticks_busy::IntALU(0)    459696000                       # Total ticks fu was busy
system.cpu.fuPool.fu_ticks_busy::IntALU(1)    459696000                       # Total ticks fu was busy
system.cpu.fuPool.fu_ticks_busy::IntALU(2)    459696000                       # Total ticks fu was busy
system.cpu.fuPool.fu_ticks_busy::IntALU(3)    459696000                       # Total ticks fu was busy
system.cpu.fuPool.fu_ticks_busy::IntALU(4)    459696000                       # Total ticks fu was busy
system.cpu.fuPool.fu_ticks_busy::IntALU(5)    459695600                       # Total ticks fu was busy
system.cpu.fuPool.fu_ticks_busy::IntMultDiv(0)     14012400                       # Total ticks fu was busy
system.cpu.fuPool.fu_ticks_busy::IntMultDiv(1)     14012400                       # Total ticks fu was busy
system.cpu.fuPool.fu_ticks_busy::FP_ALU(0)      1172400                       # Total ticks fu was busy
system.cpu.fuPool.fu_ticks_busy::FP_ALU(1)      1172400                       # Total ticks fu was busy
system.cpu.fuPool.fu_ticks_busy::FP_ALU(2)      1171600                       # Total ticks fu was busy
system.cpu.fuPool.fu_ticks_busy::FP_ALU(3)      1171600                       # Total ticks fu was busy
system.cpu.fuPool.fu_ticks_busy::FP_MultDiv(0)            0                       # Total ticks fu was busy
system.cpu.fuPool.fu_ticks_busy::FP_MultDiv(1)            0                       # Total ticks fu was busy
system.cpu.fuPool.fu_ticks_busy::SIMD_Unit(0)     15111200                       # Total ticks fu was busy
system.cpu.fuPool.fu_ticks_busy::SIMD_Unit(1)     14358800                       # Total ticks fu was busy
system.cpu.fuPool.fu_ticks_busy::SIMD_Unit(2)     15104000                       # Total ticks fu was busy
system.cpu.fuPool.fu_ticks_busy::SIMD_Unit(3)     15042000                       # Total ticks fu was busy
system.cpu.fuPool.fu_ticks_busy::PredALU(0)            0                       # Total ticks fu was busy
system.cpu.fuPool.fu_ticks_busy::RdWrPort(0)    172006000                       # Total ticks fu was busy
system.cpu.fuPool.fu_ticks_busy::RdWrPort(1)    172201600                       # Total ticks fu was busy
system.cpu.fuPool.fu_ticks_busy::RdWrPort(2)    172062800                       # Total ticks fu was busy
system.cpu.fuPool.fu_ticks_busy::RdWrPort(3)    172123200                       # Total ticks fu was busy
system.cpu.fuPool.fu_ticks_busy::IprPort(0)            0                       # Total ticks fu was busy
system.cpu.fuPool.fu_ticks_busy::total     3538898000                       # Total ticks fu was busy
system.cpu.icache.prefetcher.num_hwpf_issued            0                       # number of hwpf issued
system.cpu.icache.prefetcher.pfBufferHit            0                       # number of redundant prefetches already in prefetch queue
system.cpu.icache.prefetcher.pfIdentified            0                       # number of prefetch candidates identified
system.cpu.icache.prefetcher.pfInCache              0                       # number of redundant prefetches already in cache/mshr dropped
system.cpu.icache.prefetcher.pfRemovedFull            0                       # number of prefetches dropped due to prefetch queue size
system.cpu.icache.prefetcher.pfSpanPage             0                       # number of prefetches that crossed the page
system.cpu.idleCycles                          170029                       # Total number of cycles that the CPU has spent unscheduled due to idling
system.cpu.iew.branchMispredicts                43585                       # Number of branch mispredicts detected at execute
system.cpu.iew.exec_branches                   869010                       # Number of branches executed
system.cpu.iew.exec_nop                             0                       # number of nop insts executed
system.cpu.iew.exec_rate                     1.841545                       # Inst execution rate
system.cpu.iew.exec_refs                      1697937                       # number of memory reference insts executed
system.cpu.iew.exec_stores                     552736                       # Number of stores executed
system.cpu.iew.exec_swp                             0                       # number of swp insts executed
system.cpu.iew.iewBlockCycles                  761521                       # Number of cycles IEW is blocking
system.cpu.iew.iewDispLoadInsts               1194918                       # Number of dispatched load instructions
system.cpu.iew.iewDispNonSpecInsts               1215                       # Number of dispatched non-speculative instructions
system.cpu.iew.iewDispSquashedInsts               547                       # Number of squashed instructions skipped by dispatch
system.cpu.iew.iewDispStoreInsts               576958                       # Number of dispatched store instructions
system.cpu.iew.iewDispatchedInsts             9307728                       # Number of instructions dispatched to IQ
system.cpu.iew.iewExecLoadInsts               1145201                       # Number of load instructions executed
system.cpu.iew.iewExecSquashedInsts             58279                       # Number of squashed instructions skipped in execute
system.cpu.iew.iewExecutedInsts               8834972                       # Number of executed instructions
system.cpu.iew.iewIQFullEvents                   3361                       # Number of times the IQ has become full, causing a stall
system.cpu.iew.iewIdleCycles                        0                       # Number of cycles IEW is idle
system.cpu.iew.iewLSQFullEvents                  9087                       # Number of times the LSQ has become full, causing a stall
system.cpu.iew.iewSquashCycles                  37473                       # Number of cycles IEW is squashing
system.cpu.iew.iewUnblockCycles                 15285                       # Number of cycles IEW is unblocking
system.cpu.iew.lsq.thread0.blockedLoads             0                       # Number of blocked loads due to partial load-store forwarding
system.cpu.iew.lsq.thread0.cacheBlocked           621                       # Number of times an access to memory failed due to the cache being blocked
system.cpu.iew.lsq.thread0.forwLoads            67518                       # Number of loads that had data forwarded from stores
system.cpu.iew.lsq.thread0.ignoredResponses          270                       # Number of memory responses ignored because the instruction is squashed
system.cpu.iew.lsq.thread0.invAddrLoads             0                       # Number of loads ignored due to an invalid address
system.cpu.iew.lsq.thread0.invAddrSwpfs             0                       # Number of software prefetches ignored due to an invalid address
system.cpu.iew.lsq.thread0.memOrderViolation          108                       # Number of memory ordering violations
system.cpu.iew.lsq.thread0.rescheduledLoads           60                       # Number of loads that were rescheduled
system.cpu.iew.lsq.thread0.squashedLoads       162846                       # Number of loads squashed
system.cpu.iew.lsq.thread0.squashedStores        51341                       # Number of stores squashed
system.cpu.iew.memOrderViolationEvents            108                       # Number of memory order violations
system.cpu.iew.predictedNotTakenIncorrect        32124                       # Number of branches that were predicted not taken incorrectly
system.cpu.iew.predictedTakenIncorrect          11461                       # Number of branches that were predicted taken incorrectly
system.cpu.iew.wb_consumers                  11137839                       # num instructions consuming a value
system.cpu.iew.wb_count                       8804599                       # cumulative count of insts written-back
system.cpu.iew.wb_fanout                     0.593815                       # average fanout of values written-back
system.cpu.iew.wb_producers                   6613818                       # num instructions producing a value
system.cpu.iew.wb_rate                       1.835214                       # insts written-back per cycle
system.cpu.iew.wb_sent                        8813264                       # cumulative count of insts sent to commit
system.cpu.int_regfile_reads                 13457515                       # number of integer regfile reads
system.cpu.int_regfile_writes                 7276377                       # number of integer regfile writes
system.cpu.ipc                               0.927411                       # IPC: Instructions Per Cycle
system.cpu.ipc_total                         0.927411                       # IPC: Total IPC of All Threads
system.cpu.iq.FU_type_0::No_OpClass             46006      0.52%      0.52% # Type of FU issued
system.cpu.iq.FU_type_0::IntAlu               6895440     77.54%     78.05% # Type of FU issued
system.cpu.iq.FU_type_0::IntMult                27804      0.31%     78.37% # Type of FU issued
system.cpu.iq.FU_type_0::IntDiv                 42258      0.48%     78.84% # Type of FU issued
system.cpu.iq.FU_type_0::FloatAdd               10462      0.12%     78.96% # Type of FU issued
system.cpu.iq.FU_type_0::FloatCmp                   0      0.00%     78.96% # Type of FU issued
system.cpu.iq.FU_type_0::FloatCvt                1258      0.01%     78.97% # Type of FU issued
system.cpu.iq.FU_type_0::FloatMult                  0      0.00%     78.97% # Type of FU issued
system.cpu.iq.FU_type_0::FloatMultAcc               0      0.00%     78.97% # Type of FU issued
system.cpu.iq.FU_type_0::FloatDiv                   0      0.00%     78.97% # Type of FU issued
system.cpu.iq.FU_type_0::FloatMisc                  0      0.00%     78.97% # Type of FU issued
system.cpu.iq.FU_type_0::FloatSqrt                  0      0.00%     78.97% # Type of FU issued
system.cpu.iq.FU_type_0::SimdAdd                 6821      0.08%     79.05% # Type of FU issued
system.cpu.iq.FU_type_0::SimdAddAcc                 0      0.00%     79.05% # Type of FU issued
system.cpu.iq.FU_type_0::SimdAlu                39294      0.44%     79.49% # Type of FU issued
system.cpu.iq.FU_type_0::SimdCmp                    0      0.00%     79.49% # Type of FU issued
system.cpu.iq.FU_type_0::SimdCvt                38369      0.43%     79.92% # Type of FU issued
system.cpu.iq.FU_type_0::SimdMisc               62391      0.70%     80.62% # Type of FU issued
system.cpu.iq.FU_type_0::SimdMult                   0      0.00%     80.62% # Type of FU issued
system.cpu.iq.FU_type_0::SimdMultAcc                0      0.00%     80.62% # Type of FU issued
system.cpu.iq.FU_type_0::SimdShift               2165      0.02%     80.65% # Type of FU issued
system.cpu.iq.FU_type_0::SimdShiftAcc               0      0.00%     80.65% # Type of FU issued
system.cpu.iq.FU_type_0::SimdDiv                    0      0.00%     80.65% # Type of FU issued
system.cpu.iq.FU_type_0::SimdSqrt                   0      0.00%     80.65% # Type of FU issued
system.cpu.iq.FU_type_0::SimdFloatAdd               0      0.00%     80.65% # Type of FU issued
system.cpu.iq.FU_type_0::SimdFloatAlu               0      0.00%     80.65% # Type of FU issued
system.cpu.iq.FU_type_0::SimdFloatCmp               0      0.00%     80.65% # Type of FU issued
system.cpu.iq.FU_type_0::SimdFloatCvt               0      0.00%     80.65% # Type of FU issued
system.cpu.iq.FU_type_0::SimdFloatDiv               0      0.00%     80.65% # Type of FU issued
system.cpu.iq.FU_type_0::SimdFloatMisc              0      0.00%     80.65% # Type of FU issued
system.cpu.iq.FU_type_0::SimdFloatMult              0      0.00%     80.65% # Type of FU issued
system.cpu.iq.FU_type_0::SimdFloatMultAcc            0      0.00%     80.65% # Type of FU issued
system.cpu.iq.FU_type_0::SimdFloatSqrt              0      0.00%     80.65% # Type of FU issued
system.cpu.iq.FU_type_0::SimdReduceAdd              0      0.00%     80.65% # Type of FU issued
system.cpu.iq.FU_type_0::SimdReduceAlu              0      0.00%     80.65% # Type of FU issued
system.cpu.iq.FU_type_0::SimdReduceCmp              0      0.00%     80.65% # Type of FU issued
system.cpu.iq.FU_type_0::SimdFloatReduceAdd            0      0.00%     80.65% # Type of FU issued
system.cpu.iq.FU_type_0::SimdFloatReduceCmp            0      0.00%     80.65% # Type of FU issued
system.cpu.iq.FU_type_0::SimdAes                    0      0.00%     80.65% # Type of FU issued
system.cpu.iq.FU_type_0::SimdAesMix                 0      0.00%     80.65% # Type of FU issued
system.cpu.iq.FU_type_0::SimdSha1Hash               0      0.00%     80.65% # Type of FU issued
system.cpu.iq.FU_type_0::SimdSha1Hash2              0      0.00%     80.65% # Type of FU issued
system.cpu.iq.FU_type_0::SimdSha256Hash             0      0.00%     80.65% # Type of FU issued
system.cpu.iq.FU_type_0::SimdSha256Hash2            0      0.00%     80.65% # Type of FU issued
system.cpu.iq.FU_type_0::SimdShaSigma2              0      0.00%     80.65% # Type of FU issued
system.cpu.iq.FU_type_0::SimdShaSigma3              0      0.00%     80.65% # Type of FU issued
system.cpu.iq.FU_type_0::SimdPredAlu                0      0.00%     80.65% # Type of FU issued
system.cpu.iq.FU_type_0::MemRead              1121885     12.62%     93.26% # Type of FU issued
system.cpu.iq.FU_type_0::MemWrite              540312      6.08%     99.34% # Type of FU issued
system.cpu.iq.FU_type_0::FloatMemRead           41315      0.46%     99.80% # Type of FU issued
system.cpu.iq.FU_type_0::FloatMemWrite          17474      0.20%    100.00% # Type of FU issued
system.cpu.iq.FU_type_0::IprAccess                  0      0.00%    100.00% # Type of FU issued
system.cpu.iq.FU_type_0::InstPrefetch               0      0.00%    100.00% # Type of FU issued
system.cpu.iq.FU_type_0::total                8893254                       # Type of FU issued
system.cpu.iq.fp_alu_accesses                  239010                       # Number of floating point alu accesses
system.cpu.iq.fp_inst_queue_reads              479335                       # Number of floating instruction queue reads
system.cpu.iq.fp_inst_queue_wakeup_accesses       235648                       # Number of floating instruction queue wakeup accesses
system.cpu.iq.fp_inst_queue_writes             278457                       # Number of floating instruction queue writes
system.cpu.iq.fu_busy_cnt                           0                       # FU busy when requested
system.cpu.iq.fu_busy_rate                          0                       # FU busy rate (busy events/executed inst)
system.cpu.iq.fu_full::No_OpClass                   0                       # attempts to use FU when none available
system.cpu.iq.fu_full::IntAlu                       0                       # attempts to use FU when none available
system.cpu.iq.fu_full::IntMult                      0                       # attempts to use FU when none available
system.cpu.iq.fu_full::IntDiv                       0                       # attempts to use FU when none available
system.cpu.iq.fu_full::FloatAdd                     0                       # attempts to use FU when none available
system.cpu.iq.fu_full::FloatCmp                     0                       # attempts to use FU when none available
system.cpu.iq.fu_full::FloatCvt                     0                       # attempts to use FU when none available
system.cpu.iq.fu_full::FloatMult                    0                       # attempts to use FU when none available
system.cpu.iq.fu_full::FloatMultAcc                 0                       # attempts to use FU when none available
system.cpu.iq.fu_full::FloatDiv                     0                       # attempts to use FU when none available
system.cpu.iq.fu_full::FloatMisc                    0                       # attempts to use FU when none available
system.cpu.iq.fu_full::FloatSqrt                    0                       # attempts to use FU when none available
system.cpu.iq.fu_full::SimdAdd                      0                       # attempts to use FU when none available
system.cpu.iq.fu_full::SimdAddAcc                   0                       # attempts to use FU when none available
system.cpu.iq.fu_full::SimdAlu                      0                       # attempts to use FU when none available
system.cpu.iq.fu_full::SimdCmp                      0                       # attempts to use FU when none available
system.cpu.iq.fu_full::SimdCvt                      0                       # attempts to use FU when none available
system.cpu.iq.fu_full::SimdMisc                     0                       # attempts to use FU when none available
system.cpu.iq.fu_full::SimdMult                     0                       # attempts to use FU when none available
system.cpu.iq.fu_full::SimdMultAcc                  0                       # attempts to use FU when none available
system.cpu.iq.fu_full::SimdShift                    0                       # attempts to use FU when none available
system.cpu.iq.fu_full::SimdShiftAcc                 0                       # attempts to use FU when none available
system.cpu.iq.fu_full::SimdDiv                      0                       # attempts to use FU when none available
system.cpu.iq.fu_full::SimdSqrt                     0                       # attempts to use FU when none available
system.cpu.iq.fu_full::SimdFloatAdd                 0                       # attempts to use FU when none available
system.cpu.iq.fu_full::SimdFloatAlu                 0                       # attempts to use FU when none available
system.cpu.iq.fu_full::SimdFloatCmp                 0                       # attempts to use FU when none available
system.cpu.iq.fu_full::SimdFloatCvt                 0                       # attempts to use FU when none available
system.cpu.iq.fu_full::SimdFloatDiv                 0                       # attempts to use FU when none available
system.cpu.iq.fu_full::SimdFloatMisc                0                       # attempts to use FU when none available
system.cpu.iq.fu_full::SimdFloatMult                0                       # attempts to use FU when none available
system.cpu.iq.fu_full::SimdFloatMultAcc             0                       # attempts to use FU when none available
system.cpu.iq.fu_full::SimdFloatSqrt                0                       # attempts to use FU when none available
system.cpu.iq.fu_full::SimdReduceAdd                0                       # attempts to use FU when none available
system.cpu.iq.fu_full::SimdReduceAlu                0                       # attempts to use FU when none available
system.cpu.iq.fu_full::SimdReduceCmp                0                       # attempts to use FU when none available
system.cpu.iq.fu_full::SimdFloatReduceAdd            0                       # attempts to use FU when none available
system.cpu.iq.fu_full::SimdFloatReduceCmp            0                       # attempts to use FU when none available
system.cpu.iq.fu_full::SimdAes                      0                       # attempts to use FU when none available
system.cpu.iq.fu_full::SimdAesMix                   0                       # attempts to use FU when none available
system.cpu.iq.fu_full::SimdSha1Hash                 0                       # attempts to use FU when none available
system.cpu.iq.fu_full::SimdSha1Hash2                0                       # attempts to use FU when none available
system.cpu.iq.fu_full::SimdSha256Hash               0                       # attempts to use FU when none available
system.cpu.iq.fu_full::SimdSha256Hash2              0                       # attempts to use FU when none available
system.cpu.iq.fu_full::SimdShaSigma2                0                       # attempts to use FU when none available
system.cpu.iq.fu_full::SimdShaSigma3                0                       # attempts to use FU when none available
system.cpu.iq.fu_full::SimdPredAlu                  0                       # attempts to use FU when none available
system.cpu.iq.fu_full::MemRead                      0                       # attempts to use FU when none available
system.cpu.iq.fu_full::MemWrite                     0                       # attempts to use FU when none available
system.cpu.iq.fu_full::FloatMemRead                 0                       # attempts to use FU when none available
system.cpu.iq.fu_full::FloatMemWrite                0                       # attempts to use FU when none available
system.cpu.iq.fu_full::IprAccess                    0                       # attempts to use FU when none available
system.cpu.iq.fu_full::InstPrefetch                 0                       # attempts to use FU when none available
system.cpu.iq.int_alu_accesses                8608238                       # Number of integer alu accesses
system.cpu.iq.int_inst_queue_reads           21959066                       # Number of integer instruction queue reads
system.cpu.iq.int_inst_queue_wakeup_accesses      8568951                       # Number of integer instruction queue wakeup accesses
system.cpu.iq.int_inst_queue_writes          10199990                       # Number of integer instruction queue writes
system.cpu.iq.iqInstsAdded                    9305804                       # Number of instructions added to the IQ (excludes non-spec)
system.cpu.iq.iqInstsIssued                   8893254                       # Number of instructions issued
system.cpu.iq.iqNonSpecInstsAdded                1924                       # Number of non-speculative instructions added to the IQ
system.cpu.iq.iqSquashedInstsExamined         1170613                       # Number of squashed instructions iterated over during squash; mainly for profiling
system.cpu.iq.iqSquashedInstsIssued             24337                       # Number of squashed instructions issued
system.cpu.iq.iqSquashedNonSpecRemoved           1176                       # Number of squashed non-spec instructions that were removed
system.cpu.iq.iqSquashedOperandsExamined      1732121                       # Number of squashed operands that are examined and possibly removed from graph
system.cpu.iq.issued_per_cycle::samples       4627559                       # Number of insts issued each cycle
system.cpu.iq.issued_per_cycle::mean         1.921802                       # Number of insts issued each cycle
system.cpu.iq.issued_per_cycle::stdev        1.612321                       # Number of insts issued each cycle
system.cpu.iq.issued_per_cycle::underflows            0      0.00%      0.00% # Number of insts issued each cycle
system.cpu.iq.issued_per_cycle::0             1517514     32.79%     32.79% # Number of insts issued each cycle
system.cpu.iq.issued_per_cycle::1              476038     10.29%     43.08% # Number of insts issued each cycle
system.cpu.iq.issued_per_cycle::2              666157     14.40%     57.48% # Number of insts issued each cycle
system.cpu.iq.issued_per_cycle::3              786498     17.00%     74.47% # Number of insts issued each cycle
system.cpu.iq.issued_per_cycle::4             1181352     25.53%    100.00% # Number of insts issued each cycle
system.cpu.iq.issued_per_cycle::overflows            0      0.00%    100.00% # Number of insts issued each cycle
system.cpu.iq.issued_per_cycle::min_value            0                       # Number of insts issued each cycle
system.cpu.iq.issued_per_cycle::max_value            4                       # Number of insts issued each cycle
system.cpu.iq.issued_per_cycle::total         4627559                       # Number of insts issued each cycle
system.cpu.iq.rate                           1.853693                       # Inst issue rate
system.cpu.iq.vec_alu_accesses                      0                       # Number of vector alu accesses
system.cpu.iq.vec_inst_queue_reads                  0                       # Number of vector instruction queue reads
system.cpu.iq.vec_inst_queue_wakeup_accesses            0                       # Number of vector instruction queue wakeup accesses
system.cpu.iq.vec_inst_queue_writes                 0                       # Number of vector instruction queue writes
system.cpu.itb.rdAccesses                           0                       # TLB accesses on read requests
system.cpu.itb.rdMisses                             0                       # TLB misses on read requests
system.cpu.itb.wrAccesses                      672261                       # TLB accesses on write requests
system.cpu.itb.wrMisses                           375                       # TLB misses on write requests
system.cpu.memDep0.conflictingLoads             33894                       # Number of conflicting loads.
system.cpu.memDep0.conflictingStores             8504                       # Number of conflicting stores.
system.cpu.memDep0.insertedLoads              1194918                       # Number of loads inserted to the mem dependence unit.
system.cpu.memDep0.insertedStores              576958                       # Number of stores inserted to the mem dependence unit.
system.cpu.misc_regfile_reads                 3505158                       # number of misc regfile reads
system.cpu.misc_regfile_writes                    684                       # number of misc regfile writes
system.cpu.numCycles                          4797588                       # number of cpu cycles simulated
system.cpu.numWorkItemsCompleted                    0                       # number of work items this cpu completed
system.cpu.numWorkItemsStarted                      0                       # number of work items this cpu started
system.cpu.process.numSyscalls                     63                       # Number of system calls
system.cpu.rename.BlockCycles                  910356                       # Number of cycles rename is blocking
system.cpu.rename.CommittedMaps              10200865                       # Number of HB maps that are committed
system.cpu.rename.FullRegisterEvents               75                       # Number of times there has been no free registers
system.cpu.rename.IQFullEvents                  58238                       # Number of times rename has blocked due to IQ full
system.cpu.rename.IdleCycles                   903685                       # Number of cycles rename is idle
system.cpu.rename.LQFullEvents                  14007                       # Number of times rename has blocked due to LQ full
system.cpu.rename.ROBFullEvents                  3945                       # Number of times rename has blocked due to ROB full
system.cpu.rename.RenameLookups              24543944                       # Number of register rename lookups that rename has made
system.cpu.rename.RenamedInsts                9527404                       # Number of instructions processed by rename
system.cpu.rename.RenamedOperands            11980126                       # Number of destination operands rename has renamed
system.cpu.rename.RunCycles                   2559442                       # Number of cycles rename is running
system.cpu.rename.SQFullEvents                  77889                       # Number of times rename has blocked due to SQ full
system.cpu.rename.SquashCycles                  37473                       # Number of cycles rename is squashing
system.cpu.rename.UnblockCycles                196029                       # Number of cycles rename is unblocking
system.cpu.rename.UndoneMaps                  1779238                       # Number of HB maps that are undone due to squashing
system.cpu.rename.fp_rename_lookups            409083                       # Number of floating rename lookups
system.cpu.rename.int_rename_lookups         14735732                       # Number of integer rename lookups
system.cpu.rename.serializeStallCycles          20574                       # count of cycles rename stalled for serializing inst
system.cpu.rename.serializingInsts                893                       # count of serializing insts renamed
system.cpu.rename.skidInsts                    248650                       # count of insts added to the skid buffer
system.cpu.rename.tempSerializingInsts            946                       # count of temporary serializing insts renamed
system.cpu.rob.rob_reads                     12320970                       # The number of ROB reads
system.cpu.rob.rob_writes                    18935627                       # The number of ROB writes
system.cpu.timesIdled                            5633                       # Number of times that the entire CPU went into an idle state and unscheduled itself
system.l2bus.snoop_filter.hit_multi_requests           11                       # Number of requests hitting in the snoop filter with multiple (>1) holders of the requested data.
system.l2bus.snoop_filter.hit_multi_snoops            0                       # Number of snoops hitting in the snoop filter with multiple (>1) holders of the requested data.
system.l2bus.snoop_filter.hit_single_requests        23050                       # Number of requests hitting in the snoop filter with a single holder of the requested data.
system.l2bus.snoop_filter.hit_single_snoops          442                       # Number of snoops hitting in the snoop filter with a single holder of the requested data.
system.l2bus.snoop_filter.tot_requests          47380                       # Total number of requests made to the snoop filter.
system.l2bus.snoop_filter.tot_snoops              442                       # Total number of snoops made to the snoop filter.
system.l2cache.prefetcher.num_hwpf_issued          713                       # number of hwpf issued
system.l2cache.prefetcher.pfBufferHit               0                       # number of redundant prefetches already in prefetch queue
system.l2cache.prefetcher.pfIdentified            713                       # number of prefetch candidates identified
system.l2cache.prefetcher.pfInCache                 0                       # number of redundant prefetches already in cache/mshr dropped
system.l2cache.prefetcher.pfRemovedFull             0                       # number of prefetches dropped due to prefetch queue size
system.l2cache.prefetcher.pfSpanPage               83                       # number of prefetches that crossed the page
system.membus.snoop_filter.hit_multi_requests            0                       # Number of requests hitting in the snoop filter with multiple (>1) holders of the requested data.
system.membus.snoop_filter.hit_multi_snoops            0                       # Number of snoops hitting in the snoop filter with multiple (>1) holders of the requested data.
system.membus.snoop_filter.hit_single_requests         9614                       # Number of requests hitting in the snoop filter with a single holder of the requested data.
system.membus.snoop_filter.hit_single_snoops            0                       # Number of snoops hitting in the snoop filter with a single holder of the requested data.
system.membus.snoop_filter.tot_requests         23356                       # Total number of requests made to the snoop filter.
system.membus.snoop_filter.tot_snoops               0                       # Total number of snoops made to the snoop filter.
system.membus.pwrStateResidencyTicks::UNDEFINED   1919034800                       # Cumulative time (in ticks) in various power states
system.membus.trans_dist::ReadResp              12214                       # Transaction distribution
system.membus.trans_dist::WritebackDirty         1338                       # Transaction distribution
system.membus.trans_dist::CleanEvict             8276                       # Transaction distribution
system.membus.trans_dist::ReadExReq              1528                       # Transaction distribution
system.membus.trans_dist::ReadExResp             1528                       # Transaction distribution
system.membus.trans_dist::ReadSharedReq         12214                       # Transaction distribution
system.membus.pkt_count_system.l2cache.mem_side::system.mem_ctrl.port        37098                       # Packet count per connected master and slave (bytes)
system.membus.pkt_count_system.l2cache.mem_side::total        37098                       # Packet count per connected master and slave (bytes)
system.membus.pkt_count::total                  37098                       # Packet count per connected master and slave (bytes)
system.membus.pkt_size_system.l2cache.mem_side::system.mem_ctrl.port       965120                       # Cumulative packet size per connected master and slave (bytes)
system.membus.pkt_size_system.l2cache.mem_side::total       965120                       # Cumulative packet size per connected master and slave (bytes)
system.membus.pkt_size::total                  965120                       # Cumulative packet size per connected master and slave (bytes)
system.membus.snoops                                0                       # Total snoops (count)
system.membus.snoopTraffic                          0                       # Total snoop traffic (bytes)
system.membus.snoop_fanout::samples             13742                       # Request fanout histogram
system.membus.snoop_fanout::mean                    0                       # Request fanout histogram
system.membus.snoop_fanout::stdev                   0                       # Request fanout histogram
system.membus.snoop_fanout::underflows              0      0.00%      0.00% # Request fanout histogram
system.membus.snoop_fanout::0                   13742    100.00%    100.00% # Request fanout histogram
system.membus.snoop_fanout::1                       0      0.00%    100.00% # Request fanout histogram
system.membus.snoop_fanout::overflows               0      0.00%    100.00% # Request fanout histogram
system.membus.snoop_fanout::min_value               0                       # Request fanout histogram
system.membus.snoop_fanout::max_value               0                       # Request fanout histogram
system.membus.snoop_fanout::total               13742                       # Request fanout histogram
system.membus.reqLayer2.occupancy            11517662                       # Layer occupancy (ticks)
system.membus.reqLayer2.utilization               0.6                       # Layer utilization (%)
system.membus.respLayer0.occupancy           29794838                       # Layer occupancy (ticks)
system.membus.respLayer0.utilization              1.6                       # Layer utilization (%)
system.l2bus.pwrStateResidencyTicks::UNDEFINED   1919034800                       # Cumulative time (in ticks) in various power states
system.l2bus.trans_dist::ReadResp               22017                       # Transaction distribution
system.l2bus.trans_dist::WritebackDirty          4314                       # Transaction distribution
system.l2bus.trans_dist::CleanEvict             28448                       # Transaction distribution
system.l2bus.trans_dist::HardPFReq               1006                       # Transaction distribution
system.l2bus.trans_dist::ReadExReq               2313                       # Transaction distribution
system.l2bus.trans_dist::ReadExResp              2313                       # Transaction distribution
system.l2bus.trans_dist::ReadSharedReq          22017                       # Transaction distribution
system.l2bus.pkt_count_system.cpu.icache.mem_side::system.l2cache.cpu_side        20904                       # Packet count per connected master and slave (bytes)
system.l2bus.pkt_count_system.cpu.dcache.mem_side::system.l2cache.cpu_side        50804                       # Packet count per connected master and slave (bytes)
system.l2bus.pkt_count::total                   71708                       # Packet count per connected master and slave (bytes)
system.l2bus.pkt_size_system.cpu.icache.mem_side::system.l2cache.cpu_side       451328                       # Cumulative packet size per connected master and slave (bytes)
system.l2bus.pkt_size_system.cpu.dcache.mem_side::system.l2cache.cpu_side      1296128                       # Cumulative packet size per connected master and slave (bytes)
system.l2bus.pkt_size::total                  1747456                       # Cumulative packet size per connected master and slave (bytes)
system.l2bus.snoops                             10720                       # Total snoops (count)
system.l2bus.snoopTraffic                       85760                       # Total snoop traffic (bytes)
system.l2bus.snoop_fanout::samples              35048                       # Request fanout histogram
system.l2bus.snoop_fanout::mean              0.012925                       # Request fanout histogram
system.l2bus.snoop_fanout::stdev             0.112953                       # Request fanout histogram
system.l2bus.snoop_fanout::underflows               0      0.00%      0.00% # Request fanout histogram
system.l2bus.snoop_fanout::0                    34595     98.71%     98.71% # Request fanout histogram
system.l2bus.snoop_fanout::1                      453      1.29%    100.00% # Request fanout histogram
system.l2bus.snoop_fanout::2                        0      0.00%    100.00% # Request fanout histogram
system.l2bus.snoop_fanout::overflows                0      0.00%    100.00% # Request fanout histogram
system.l2bus.snoop_fanout::min_value                0                       # Request fanout histogram
system.l2bus.snoop_fanout::max_value                1                       # Request fanout histogram
system.l2bus.snoop_fanout::total                35048                       # Request fanout histogram
system.l2bus.respLayer1.occupancy            20732796                       # Layer occupancy (ticks)
system.l2bus.respLayer1.utilization               1.1                       # Layer utilization (%)
system.l2bus.reqLayer0.occupancy             22765483                       # Layer occupancy (ticks)
system.l2bus.reqLayer0.utilization                1.2                       # Layer utilization (%)
system.l2bus.respLayer0.occupancy             8465199                       # Layer occupancy (ticks)
system.l2bus.respLayer0.utilization               0.4                       # Layer utilization (%)
system.clk_domain.clock                           400                       # Clock period in ticks
system.clk_domain.voltage_domain.voltage            1                       # Voltage in Volts
system.cpu.pwrStateResidencyTicks::ON      1919034800                       # Cumulative time (in ticks) in various power states
system.cpu.icache.pwrStateResidencyTicks::UNDEFINED   1919034800                       # Cumulative time (in ticks) in various power states
system.cpu.icache.demand_hits::.cpu.inst       664401                       # number of demand (read+write) hits
system.cpu.icache.demand_hits::total           664401                       # number of demand (read+write) hits
system.cpu.icache.overall_hits::.cpu.inst       664401                       # number of overall hits
system.cpu.icache.overall_hits::total          664401                       # number of overall hits
system.cpu.icache.demand_misses::.cpu.inst         7738                       # number of demand (read+write) misses
system.cpu.icache.demand_misses::total           7738                       # number of demand (read+write) misses
system.cpu.icache.overall_misses::.cpu.inst         7738                       # number of overall misses
system.cpu.icache.overall_misses::total          7738                       # number of overall misses
system.cpu.icache.demand_miss_latency::.cpu.inst    222044400                       # number of demand (read+write) miss cycles
system.cpu.icache.demand_miss_latency::total    222044400                       # number of demand (read+write) miss cycles
system.cpu.icache.overall_miss_latency::.cpu.inst    222044400                       # number of overall miss cycles
system.cpu.icache.overall_miss_latency::total    222044400                       # number of overall miss cycles
system.cpu.icache.demand_accesses::.cpu.inst       672139                       # number of demand (read+write) accesses
system.cpu.icache.demand_accesses::total       672139                       # number of demand (read+write) accesses
system.cpu.icache.overall_accesses::.cpu.inst       672139                       # number of overall (read+write) accesses
system.cpu.icache.overall_accesses::total       672139                       # number of overall (read+write) accesses
system.cpu.icache.demand_miss_rate::.cpu.inst     0.011512                       # miss rate for demand accesses
system.cpu.icache.demand_miss_rate::total     0.011512                       # miss rate for demand accesses
system.cpu.icache.overall_miss_rate::.cpu.inst     0.011512                       # miss rate for overall accesses
system.cpu.icache.overall_miss_rate::total     0.011512                       # miss rate for overall accesses
system.cpu.icache.demand_avg_miss_latency::.cpu.inst 28695.321789                       # average overall miss latency
system.cpu.icache.demand_avg_miss_latency::total 28695.321789                       # average overall miss latency
system.cpu.icache.overall_avg_miss_latency::.cpu.inst 28695.321789                       # average overall miss latency
system.cpu.icache.overall_avg_miss_latency::total 28695.321789                       # average overall miss latency
system.cpu.icache.blocked_cycles::no_mshrs           63                       # number of cycles access was blocked
system.cpu.icache.blocked_cycles::no_targets            0                       # number of cycles access was blocked
system.cpu.icache.blocked::no_mshrs                 3                       # number of cycles access was blocked
system.cpu.icache.blocked::no_targets               0                       # number of cycles access was blocked
system.cpu.icache.avg_blocked_cycles::no_mshrs           21                       # average number of cycles each access was blocked
system.cpu.icache.avg_blocked_cycles::no_targets          nan                       # average number of cycles each access was blocked
system.cpu.icache.demand_mshr_hits::.cpu.inst          684                       # number of demand (read+write) MSHR hits
system.cpu.icache.demand_mshr_hits::total          684                       # number of demand (read+write) MSHR hits
system.cpu.icache.overall_mshr_hits::.cpu.inst          684                       # number of overall MSHR hits
system.cpu.icache.overall_mshr_hits::total          684                       # number of overall MSHR hits
system.cpu.icache.demand_mshr_misses::.cpu.inst         7054                       # number of demand (read+write) MSHR misses
system.cpu.icache.demand_mshr_misses::total         7054                       # number of demand (read+write) MSHR misses
system.cpu.icache.overall_mshr_misses::.cpu.inst         7054                       # number of overall MSHR misses
system.cpu.icache.overall_mshr_misses::total         7054                       # number of overall MSHR misses
system.cpu.icache.demand_mshr_miss_latency::.cpu.inst    185115200                       # number of demand (read+write) MSHR miss cycles
system.cpu.icache.demand_mshr_miss_latency::total    185115200                       # number of demand (read+write) MSHR miss cycles
system.cpu.icache.overall_mshr_miss_latency::.cpu.inst    185115200                       # number of overall MSHR miss cycles
system.cpu.icache.overall_mshr_miss_latency::total    185115200                       # number of overall MSHR miss cycles
system.cpu.icache.demand_mshr_miss_rate::.cpu.inst     0.010495                       # mshr miss rate for demand accesses
system.cpu.icache.demand_mshr_miss_rate::total     0.010495                       # mshr miss rate for demand accesses
system.cpu.icache.overall_mshr_miss_rate::.cpu.inst     0.010495                       # mshr miss rate for overall accesses
system.cpu.icache.overall_mshr_miss_rate::total     0.010495                       # mshr miss rate for overall accesses
system.cpu.icache.demand_avg_mshr_miss_latency::.cpu.inst 26242.585767                       # average overall mshr miss latency
system.cpu.icache.demand_avg_mshr_miss_latency::total 26242.585767                       # average overall mshr miss latency
system.cpu.icache.overall_avg_mshr_miss_latency::.cpu.inst 26242.585767                       # average overall mshr miss latency
system.cpu.icache.overall_avg_mshr_miss_latency::total 26242.585767                       # average overall mshr miss latency
system.cpu.icache.replacements                   6798                       # number of replacements
system.cpu.icache.ReadReq_hits::.cpu.inst       664401                       # number of ReadReq hits
system.cpu.icache.ReadReq_hits::total          664401                       # number of ReadReq hits
system.cpu.icache.ReadReq_misses::.cpu.inst         7738                       # number of ReadReq misses
system.cpu.icache.ReadReq_misses::total          7738                       # number of ReadReq misses
system.cpu.icache.ReadReq_miss_latency::.cpu.inst    222044400                       # number of ReadReq miss cycles
system.cpu.icache.ReadReq_miss_latency::total    222044400                       # number of ReadReq miss cycles
system.cpu.icache.ReadReq_accesses::.cpu.inst       672139                       # number of ReadReq accesses(hits+misses)
system.cpu.icache.ReadReq_accesses::total       672139                       # number of ReadReq accesses(hits+misses)
system.cpu.icache.ReadReq_miss_rate::.cpu.inst     0.011512                       # miss rate for ReadReq accesses
system.cpu.icache.ReadReq_miss_rate::total     0.011512                       # miss rate for ReadReq accesses
system.cpu.icache.ReadReq_avg_miss_latency::.cpu.inst 28695.321789                       # average ReadReq miss latency
system.cpu.icache.ReadReq_avg_miss_latency::total 28695.321789                       # average ReadReq miss latency
system.cpu.icache.ReadReq_mshr_hits::.cpu.inst          684                       # number of ReadReq MSHR hits
system.cpu.icache.ReadReq_mshr_hits::total          684                       # number of ReadReq MSHR hits
system.cpu.icache.ReadReq_mshr_misses::.cpu.inst         7054                       # number of ReadReq MSHR misses
system.cpu.icache.ReadReq_mshr_misses::total         7054                       # number of ReadReq MSHR misses
system.cpu.icache.ReadReq_mshr_miss_latency::.cpu.inst    185115200                       # number of ReadReq MSHR miss cycles
system.cpu.icache.ReadReq_mshr_miss_latency::total    185115200                       # number of ReadReq MSHR miss cycles
system.cpu.icache.ReadReq_mshr_miss_rate::.cpu.inst     0.010495                       # mshr miss rate for ReadReq accesses
system.cpu.icache.ReadReq_mshr_miss_rate::total     0.010495                       # mshr miss rate for ReadReq accesses
system.cpu.icache.ReadReq_avg_mshr_miss_latency::.cpu.inst 26242.585767                       # average ReadReq mshr miss latency
system.cpu.icache.ReadReq_avg_mshr_miss_latency::total 26242.585767                       # average ReadReq mshr miss latency
system.cpu.icache.prefetcher.pwrStateResidencyTicks::UNDEFINED   1919034800                       # Cumulative time (in ticks) in various power states
system.cpu.icache.tags.pwrStateResidencyTicks::UNDEFINED   1919034800                       # Cumulative time (in ticks) in various power states
system.cpu.icache.tags.tagsinuse           254.538804                       # Cycle average of tags in use
system.cpu.icache.tags.total_refs              466380                       # Total number of references to valid blocks.
system.cpu.icache.tags.sampled_refs              6798                       # Sample count of references to valid blocks.
system.cpu.icache.tags.avg_refs             68.605472                       # Average number of references to valid blocks.
system.cpu.icache.tags.warmup_cycle             66400                       # Cycle when the warmup percentage was hit.
system.cpu.icache.tags.occ_blocks::.cpu.inst   254.538804                       # Average occupied blocks per requestor
system.cpu.icache.tags.occ_percent::.cpu.inst     0.994292                       # Average percentage of cache occupancy
system.cpu.icache.tags.occ_percent::total     0.994292                       # Average percentage of cache occupancy
system.cpu.icache.tags.occ_task_id_blocks::1024          256                       # Occupied blocks per task id
system.cpu.icache.tags.age_task_id_blocks_1024::0          101                       # Occupied blocks per task id
system.cpu.icache.tags.age_task_id_blocks_1024::1            5                       # Occupied blocks per task id
system.cpu.icache.tags.age_task_id_blocks_1024::2          144                       # Occupied blocks per task id
system.cpu.icache.tags.age_task_id_blocks_1024::3            6                       # Occupied blocks per task id
system.cpu.icache.tags.occ_task_id_percent::1024            1                       # Percentage of cache occupancy per task id
system.cpu.icache.tags.tag_accesses           1351332                       # Number of tag accesses
system.cpu.icache.tags.data_accesses          1351332                       # Number of data accesses
system.cpu.dtb.walker.pwrStateResidencyTicks::UNDEFINED   1919034800                       # Cumulative time (in ticks) in various power states
system.cpu.interrupts.clk_domain.clock           6400                       # Clock period in ticks
system.cpu.itb.walker.pwrStateResidencyTicks::UNDEFINED   1919034800                       # Cumulative time (in ticks) in various power states
system.cpu.dcache.pwrStateResidencyTicks::UNDEFINED   1919034800                       # Cumulative time (in ticks) in various power states
system.cpu.dcache.demand_hits::.cpu.data      1566009                       # number of demand (read+write) hits
system.cpu.dcache.demand_hits::total          1566009                       # number of demand (read+write) hits
system.cpu.dcache.overall_hits::.cpu.data      1566009                       # number of overall hits
system.cpu.dcache.overall_hits::total         1566009                       # number of overall hits
system.cpu.dcache.demand_misses::.cpu.data        35206                       # number of demand (read+write) misses
system.cpu.dcache.demand_misses::total          35206                       # number of demand (read+write) misses
system.cpu.dcache.overall_misses::.cpu.data        35206                       # number of overall misses
system.cpu.dcache.overall_misses::total         35206                       # number of overall misses
system.cpu.dcache.demand_miss_latency::.cpu.data   1712091999                       # number of demand (read+write) miss cycles
system.cpu.dcache.demand_miss_latency::total   1712091999                       # number of demand (read+write) miss cycles
system.cpu.dcache.overall_miss_latency::.cpu.data   1712091999                       # number of overall miss cycles
system.cpu.dcache.overall_miss_latency::total   1712091999                       # number of overall miss cycles
system.cpu.dcache.demand_accesses::.cpu.data      1601215                       # number of demand (read+write) accesses
system.cpu.dcache.demand_accesses::total      1601215                       # number of demand (read+write) accesses
system.cpu.dcache.overall_accesses::.cpu.data      1601215                       # number of overall (read+write) accesses
system.cpu.dcache.overall_accesses::total      1601215                       # number of overall (read+write) accesses
system.cpu.dcache.demand_miss_rate::.cpu.data     0.021987                       # miss rate for demand accesses
system.cpu.dcache.demand_miss_rate::total     0.021987                       # miss rate for demand accesses
system.cpu.dcache.overall_miss_rate::.cpu.data     0.021987                       # miss rate for overall accesses
system.cpu.dcache.overall_miss_rate::total     0.021987                       # miss rate for overall accesses
system.cpu.dcache.demand_avg_miss_latency::.cpu.data 48630.687923                       # average overall miss latency
system.cpu.dcache.demand_avg_miss_latency::total 48630.687923                       # average overall miss latency
system.cpu.dcache.overall_avg_miss_latency::.cpu.data 48630.687923                       # average overall miss latency
system.cpu.dcache.overall_avg_miss_latency::total 48630.687923                       # average overall miss latency
system.cpu.dcache.blocked_cycles::no_mshrs        29380                       # number of cycles access was blocked
system.cpu.dcache.blocked_cycles::no_targets          265                       # number of cycles access was blocked
system.cpu.dcache.blocked::no_mshrs               743                       # number of cycles access was blocked
system.cpu.dcache.blocked::no_targets               3                       # number of cycles access was blocked
system.cpu.dcache.avg_blocked_cycles::no_mshrs    39.542396                       # average number of cycles each access was blocked
system.cpu.dcache.avg_blocked_cycles::no_targets    88.333333                       # average number of cycles each access was blocked
system.cpu.dcache.unused_prefetches              1790                       # number of HardPF blocks evicted w/o reference
system.cpu.dcache.writebacks::.writebacks         2976                       # number of writebacks
system.cpu.dcache.writebacks::total              2976                       # number of writebacks
system.cpu.dcache.demand_mshr_hits::.cpu.data        22313                       # number of demand (read+write) MSHR hits
system.cpu.dcache.demand_mshr_hits::total        22313                       # number of demand (read+write) MSHR hits
system.cpu.dcache.overall_mshr_hits::.cpu.data        22313                       # number of overall MSHR hits
system.cpu.dcache.overall_mshr_hits::total        22313                       # number of overall MSHR hits
system.cpu.dcache.demand_mshr_misses::.cpu.data        12893                       # number of demand (read+write) MSHR misses
system.cpu.dcache.demand_mshr_misses::total        12893                       # number of demand (read+write) MSHR misses
system.cpu.dcache.overall_mshr_misses::.cpu.data        12893                       # number of overall MSHR misses
system.cpu.dcache.overall_mshr_misses::.cpu.dcache.prefetcher         4383                       # number of overall MSHR misses
system.cpu.dcache.overall_mshr_misses::total        17276                       # number of overall MSHR misses
system.cpu.dcache.demand_mshr_miss_latency::.cpu.data    591949599                       # number of demand (read+write) MSHR miss cycles
system.cpu.dcache.demand_mshr_miss_latency::total    591949599                       # number of demand (read+write) MSHR miss cycles
system.cpu.dcache.overall_mshr_miss_latency::.cpu.data    591949599                       # number of overall MSHR miss cycles
system.cpu.dcache.overall_mshr_miss_latency::.cpu.dcache.prefetcher    248442548                       # number of overall MSHR miss cycles
system.cpu.dcache.overall_mshr_miss_latency::total    840392147                       # number of overall MSHR miss cycles
system.cpu.dcache.demand_mshr_miss_rate::.cpu.data     0.008052                       # mshr miss rate for demand accesses
system.cpu.dcache.demand_mshr_miss_rate::total     0.008052                       # mshr miss rate for demand accesses
system.cpu.dcache.overall_mshr_miss_rate::.cpu.data     0.008052                       # mshr miss rate for overall accesses
system.cpu.dcache.overall_mshr_miss_rate::.cpu.dcache.prefetcher          inf                       # mshr miss rate for overall accesses
system.cpu.dcache.overall_mshr_miss_rate::total     0.010789                       # mshr miss rate for overall accesses
system.cpu.dcache.demand_avg_mshr_miss_latency::.cpu.data 45912.479563                       # average overall mshr miss latency
system.cpu.dcache.demand_avg_mshr_miss_latency::total 45912.479563                       # average overall mshr miss latency
system.cpu.dcache.overall_avg_mshr_miss_latency::.cpu.data 45912.479563                       # average overall mshr miss latency
system.cpu.dcache.overall_avg_mshr_miss_latency::.cpu.dcache.prefetcher 56683.218800                       # average overall mshr miss latency
system.cpu.dcache.overall_avg_mshr_miss_latency::total 48645.065235                       # average overall mshr miss latency
system.cpu.dcache.replacements                  16252                       # number of replacements
system.cpu.dcache.ReadReq_hits::.cpu.data      1041776                       # number of ReadReq hits
system.cpu.dcache.ReadReq_hits::total         1041776                       # number of ReadReq hits
system.cpu.dcache.ReadReq_misses::.cpu.data        32856                       # number of ReadReq misses
system.cpu.dcache.ReadReq_misses::total         32856                       # number of ReadReq misses
system.cpu.dcache.ReadReq_miss_latency::.cpu.data   1594060000                       # number of ReadReq miss cycles
system.cpu.dcache.ReadReq_miss_latency::total   1594060000                       # number of ReadReq miss cycles
system.cpu.dcache.ReadReq_accesses::.cpu.data      1074632                       # number of ReadReq accesses(hits+misses)
system.cpu.dcache.ReadReq_accesses::total      1074632                       # number of ReadReq accesses(hits+misses)
system.cpu.dcache.ReadReq_miss_rate::.cpu.data     0.030574                       # miss rate for ReadReq accesses
system.cpu.dcache.ReadReq_miss_rate::total     0.030574                       # miss rate for ReadReq accesses
system.cpu.dcache.ReadReq_avg_miss_latency::.cpu.data 48516.557098                       # average ReadReq miss latency
system.cpu.dcache.ReadReq_avg_miss_latency::total 48516.557098                       # average ReadReq miss latency
system.cpu.dcache.ReadReq_mshr_hits::.cpu.data        22276                       # number of ReadReq MSHR hits
system.cpu.dcache.ReadReq_mshr_hits::total        22276                       # number of ReadReq MSHR hits
system.cpu.dcache.ReadReq_mshr_misses::.cpu.data        10580                       # number of ReadReq MSHR misses
system.cpu.dcache.ReadReq_mshr_misses::total        10580                       # number of ReadReq MSHR misses
system.cpu.dcache.ReadReq_mshr_miss_latency::.cpu.data    477298800                       # number of ReadReq MSHR miss cycles
system.cpu.dcache.ReadReq_mshr_miss_latency::total    477298800                       # number of ReadReq MSHR miss cycles
system.cpu.dcache.ReadReq_mshr_miss_rate::.cpu.data     0.009845                       # mshr miss rate for ReadReq accesses
system.cpu.dcache.ReadReq_mshr_miss_rate::total     0.009845                       # mshr miss rate for ReadReq accesses
system.cpu.dcache.ReadReq_avg_mshr_miss_latency::.cpu.data 45113.308129                       # average ReadReq mshr miss latency
system.cpu.dcache.ReadReq_avg_mshr_miss_latency::total 45113.308129                       # average ReadReq mshr miss latency
system.cpu.dcache.WriteReq_hits::.cpu.data       524233                       # number of WriteReq hits
system.cpu.dcache.WriteReq_hits::total         524233                       # number of WriteReq hits
system.cpu.dcache.WriteReq_misses::.cpu.data         2350                       # number of WriteReq misses
system.cpu.dcache.WriteReq_misses::total         2350                       # number of WriteReq misses
system.cpu.dcache.WriteReq_miss_latency::.cpu.data    118031999                       # number of WriteReq miss cycles
system.cpu.dcache.WriteReq_miss_latency::total    118031999                       # number of WriteReq miss cycles
system.cpu.dcache.WriteReq_accesses::.cpu.data       526583                       # number of WriteReq accesses(hits+misses)
system.cpu.dcache.WriteReq_accesses::total       526583                       # number of WriteReq accesses(hits+misses)
system.cpu.dcache.WriteReq_miss_rate::.cpu.data     0.004463                       # miss rate for WriteReq accesses
system.cpu.dcache.WriteReq_miss_rate::total     0.004463                       # miss rate for WriteReq accesses
system.cpu.dcache.WriteReq_avg_miss_latency::.cpu.data 50226.382553                       # average WriteReq miss latency
system.cpu.dcache.WriteReq_avg_miss_latency::total 50226.382553                       # average WriteReq miss latency
system.cpu.dcache.WriteReq_mshr_hits::.cpu.data           37                       # number of WriteReq MSHR hits
system.cpu.dcache.WriteReq_mshr_hits::total           37                       # number of WriteReq MSHR hits
system.cpu.dcache.WriteReq_mshr_misses::.cpu.data         2313                       # number of WriteReq MSHR misses
system.cpu.dcache.WriteReq_mshr_misses::total         2313                       # number of WriteReq MSHR misses
system.cpu.dcache.WriteReq_mshr_miss_latency::.cpu.data    114650799                       # number of WriteReq MSHR miss cycles
[...]
system.l2cache.demand_mshr_misses::.cpu.data          145                       # number of demand (read+write) MSHR misses
system.l2cache.demand_mshr_misses::.cpu.dcache.prefetcher           33                       # number of demand (read+write) MSHR misses
system.l2cache.demand_mshr_misses::total          432                       # number of demand (read+write) MSHR misses
system.l2cache.overall_mshr_misses::.cpu.inst          254                       # number of overall MSHR misses
system.l2cache.overall_mshr_misses::.cpu.data          145                       # number of overall MSHR misses
system.l2cache.overall_mshr_misses::.cpu.dcache.prefetcher           33                       # number of overall MSHR misses
system.l2cache.overall_mshr_misses::total          432                       # number of overall MSHR misses
system.l2cache.demand_mshr_miss_latency::.cpu.inst     15082000                       # number of demand (read+write) MSHR miss cycles
system.l2cache.demand_mshr_miss_latency::.cpu.data      8562000                       # number of demand (read+write) MSHR miss cycles
system.l2cache.demand_mshr_miss_latency::.cpu.dcache.prefetcher      2023965                       # number of demand (read+write) MSHR miss cycles
system.l2cache.demand_mshr_miss_latency::total     25667965                       # number of demand (read+write) MSHR miss cycles
system.l2cache.overall_mshr_miss_latency::.cpu.inst     15082000                       # number of overall MSHR miss cycles
system.l2cache.overall_mshr_miss_latency::.cpu.data      8562000                       # number of overall MSHR miss cycles
system.l2cache.overall_mshr_miss_latency::.cpu.dcache.prefetcher      2023965                       # number of overall MSHR miss cycles
system.l2cache.overall_mshr_miss_latency::total     25667965                       # number of overall MSHR miss cycles
system.l2cache.demand_mshr_miss_rate::.cpu.inst     0.053836                       # mshr miss rate for demand accesses
system.l2cache.demand_mshr_miss_rate::.cpu.data     0.309168                       # mshr miss rate for demand accesses
system.l2cache.demand_mshr_miss_rate::.cpu.dcache.prefetcher     0.428571                       # mshr miss rate for demand accesses
system.l2cache.demand_mshr_miss_rate::total     0.082067                       # mshr miss rate for demand accesses
system.l2cache.overall_mshr_miss_rate::.cpu.inst     0.053836                       # mshr miss rate for overall accesses
system.l2cache.overall_mshr_miss_rate::.cpu.data     0.309168                       # mshr miss rate for overall accesses
system.l2cache.overall_mshr_miss_rate::.cpu.dcache.prefetcher     0.428571                       # mshr miss rate for overall accesses
system.l2cache.overall_mshr_miss_rate::total     0.082067                       # mshr miss rate for overall accesses
system.l2cache.demand_avg_mshr_miss_latency::.cpu.inst 59377.952756                       # average overall mshr miss latency
system.l2cache.demand_avg_mshr_miss_latency::.cpu.data 59048.275862                       # average overall mshr miss latency
system.l2cache.demand_avg_mshr_miss_latency::.cpu.dcache.prefetcher 61332.272727                       # average overall mshr miss latency
system.l2cache.demand_avg_mshr_miss_latency::total 59416.585648                       # average overall mshr miss latency
system.l2cache.overall_avg_mshr_miss_latency::.cpu.inst 59377.952756                       # average overall mshr miss latency
system.l2cache.overall_avg_mshr_miss_latency::.cpu.data 59048.275862                       # average overall mshr miss latency
system.l2cache.overall_avg_mshr_miss_latency::.cpu.dcache.prefetcher 61332.272727                       # average overall mshr miss latency
system.l2cache.overall_avg_mshr_miss_latency::total 59416.585648                       # average overall mshr miss latency
system.l2cache.replacements                       440                       # number of replacements
system.l2cache.WritebackDirty_hits::.writebacks          338                       # number of WritebackDirty hits
system.l2cache.WritebackDirty_hits::total          338                       # number of WritebackDirty hits
system.l2cache.WritebackDirty_accesses::.writebacks          338                       # number of WritebackDirty accesses(hits+misses)
system.l2cache.WritebackDirty_accesses::total          338                       # number of WritebackDirty accesses(hits+misses)
system.l2cache.CleanEvict_mshr_misses::.writebacks           11                       # number of CleanEvict MSHR misses
system.l2cache.CleanEvict_mshr_misses::total           11                       # number of CleanEvict MSHR misses
system.l2cache.CleanEvict_mshr_miss_rate::.writebacks          inf                       # mshr miss rate for CleanEvict accesses
system.l2cache.CleanEvict_mshr_miss_rate::total          inf                       # mshr miss rate for CleanEvict accesses
system.l2cache.ReadExReq_hits::.cpu.data          126                       # number of ReadExReq hits
system.l2cache.ReadExReq_hits::total              126                       # number of ReadExReq hits
system.l2cache.ReadExReq_misses::.cpu.data           18                       # number of ReadExReq misses
system.l2cache.ReadExReq_misses::total             18                       # number of ReadExReq misses
system.l2cache.ReadExReq_miss_latency::.cpu.data      1205600                       # number of ReadExReq miss cycles
system.l2cache.ReadExReq_miss_latency::total      1205600                       # number of ReadExReq miss cycles
system.l2cache.ReadExReq_accesses::.cpu.data          144                       # number of ReadExReq accesses(hits+misses)
system.l2cache.ReadExReq_accesses::total          144                       # number of ReadExReq accesses(hits+misses)
system.l2cache.ReadExReq_miss_rate::.cpu.data     0.125000                       # miss rate for ReadExReq accesses
system.l2cache.ReadExReq_miss_rate::total     0.125000                       # miss rate for ReadExReq accesses
system.l2cache.ReadExReq_avg_miss_latency::.cpu.data 66977.777778                       # average ReadExReq miss latency
system.l2cache.ReadExReq_avg_miss_latency::total 66977.777778                       # average ReadExReq miss latency
system.l2cache.ReadExReq_mshr_misses::.cpu.data           18                       # number of ReadExReq MSHR misses
system.l2cache.ReadExReq_mshr_misses::total           18                       # number of ReadExReq MSHR misses
system.l2cache.ReadExReq_mshr_miss_latency::.cpu.data      1061600                       # number of ReadExReq MSHR miss cycles
system.l2cache.ReadExReq_mshr_miss_latency::total      1061600                       # number of ReadExReq MSHR miss cycles
system.l2cache.ReadExReq_mshr_miss_rate::.cpu.data     0.125000                       # mshr miss rate for ReadExReq accesses
system.l2cache.ReadExReq_mshr_miss_rate::total     0.125000                       # mshr miss rate for ReadExReq accesses
system.l2cache.ReadExReq_avg_mshr_miss_latency::.cpu.data 58977.777778                       # average ReadExReq mshr miss latency
system.l2cache.ReadExReq_avg_mshr_miss_latency::total 58977.777778                       # average ReadExReq mshr miss latency
system.l2cache.ReadSharedReq_hits::.cpu.inst         4464                       # number of ReadSharedReq hits
system.l2cache.ReadSharedReq_hits::.cpu.data          198                       # number of ReadSharedReq hits
system.l2cache.ReadSharedReq_hits::.cpu.dcache.prefetcher           44                       # number of ReadSharedReq hits
system.l2cache.ReadSharedReq_hits::total         4706                       # number of ReadSharedReq hits
system.l2cache.ReadSharedReq_misses::.cpu.inst          254                       # number of ReadSharedReq misses
system.l2cache.ReadSharedReq_misses::.cpu.data          127                       # number of ReadSharedReq misses
system.l2cache.ReadSharedReq_misses::.cpu.dcache.prefetcher           33                       # number of ReadSharedReq misses
system.l2cache.ReadSharedReq_misses::total          414                       # number of ReadSharedReq misses
system.l2cache.ReadSharedReq_miss_latency::.cpu.inst     17114000                       # number of ReadSharedReq miss cycles
system.l2cache.ReadSharedReq_miss_latency::.cpu.data      8516400                       # number of ReadSharedReq miss cycles
system.l2cache.ReadSharedReq_miss_latency::.cpu.dcache.prefetcher      2287965                       # number of ReadSharedReq miss cycles
system.l2cache.ReadSharedReq_miss_latency::total     27918365                       # number of ReadSharedReq miss cycles
system.l2cache.ReadSharedReq_accesses::.cpu.inst         4718                       # number of ReadSharedReq accesses(hits+misses)
system.l2cache.ReadSharedReq_accesses::.cpu.data          325                       # number of ReadSharedReq accesses(hits+misses)
system.l2cache.ReadSharedReq_accesses::.cpu.dcache.prefetcher           77                       # number of ReadSharedReq accesses(hits+misses)
system.l2cache.ReadSharedReq_accesses::total         5120                       # number of ReadSharedReq accesses(hits+misses)
system.l2cache.ReadSharedReq_miss_rate::.cpu.inst     0.053836                       # miss rate for ReadSharedReq accesses
system.l2cache.ReadSharedReq_miss_rate::.cpu.data     0.390769                       # miss rate for ReadSharedReq accesses
system.l2cache.ReadSharedReq_miss_rate::.cpu.dcache.prefetcher     0.428571                       # miss rate for ReadSharedReq accesses
system.l2cache.ReadSharedReq_miss_rate::total     0.080859                       # miss rate for ReadSharedReq accesses
system.l2cache.ReadSharedReq_avg_miss_latency::.cpu.inst 67377.952756                       # average ReadSharedReq miss latency
system.l2cache.ReadSharedReq_avg_miss_latency::.cpu.data 67058.267717                       # average ReadSharedReq miss latency
system.l2cache.ReadSharedReq_avg_miss_latency::.cpu.dcache.prefetcher 69332.272727                       # average ReadSharedReq miss latency
system.l2cache.ReadSharedReq_avg_miss_latency::total 67435.664251                       # average ReadSharedReq miss latency
system.l2cache.ReadSharedReq_mshr_misses::.cpu.inst          254                       # number of ReadSharedReq MSHR misses
system.l2cache.ReadSharedReq_mshr_misses::.cpu.data          127                       # number of ReadSharedReq MSHR misses
system.l2cache.ReadSharedReq_mshr_misses::.cpu.dcache.prefetcher           33                       # number of ReadSharedReq MSHR misses
system.l2cache.ReadSharedReq_mshr_misses::total          414                       # number of ReadSharedReq MSHR misses
system.l2cache.ReadSharedReq_mshr_miss_latency::.cpu.inst     15082000                       # number of ReadSharedReq MSHR miss cycles
system.l2cache.ReadSharedReq_mshr_miss_latency::.cpu.data      7500400                       # number of ReadSharedReq MSHR miss cycles
system.l2cache.ReadSharedReq_mshr_miss_latency::.cpu.dcache.prefetcher      2023965                       # number of ReadSharedReq MSHR miss cycles
system.l2cache.ReadSharedReq_mshr_miss_latency::total     24606365                       # number of ReadSharedReq MSHR miss cycles
system.l2cache.ReadSharedReq_mshr_miss_rate::.cpu.inst     0.053836                       # mshr miss rate for ReadSharedReq accesses
system.l2cache.ReadSharedReq_mshr_miss_rate::.cpu.data     0.390769                       # mshr miss rate for ReadSharedReq accesses
system.l2cache.ReadSharedReq_mshr_miss_rate::.cpu.dcache.prefetcher     0.428571                       # mshr miss rate for ReadSharedReq accesses
system.l2cache.ReadSharedReq_mshr_miss_rate::total     0.080859                       # mshr miss rate for ReadSharedReq accesses
system.l2cache.ReadSharedReq_avg_mshr_miss_latency::.cpu.inst 59377.952756                       # average ReadSharedReq mshr miss latency
system.l2cache.ReadSharedReq_avg_mshr_miss_latency::.cpu.data 59058.267717                       # average ReadSharedReq mshr miss latency
system.l2cache.ReadSharedReq_avg_mshr_miss_latency::.cpu.dcache.prefetcher 61332.272727                       # average ReadSharedReq mshr miss latency
system.l2cache.ReadSharedReq_avg_mshr_miss_latency::total 59435.664251                       # average ReadSharedReq mshr miss latency
system.l2cache.prefetcher.pwrStateResidencyTicks::UNDEFINED    787638400                       # Cumulative time (in ticks) in various power states
system.l2cache.tags.pwrStateResidencyTicks::UNDEFINED    787638400                       # Cumulative time (in ticks) in various power states
system.l2cache.tags.tagsinuse                    4096                       # Cycle average of tags in use
system.l2cache.tags.total_refs                  31580                       # Total number of references to valid blocks.
system.l2cache.tags.sampled_refs                 4536                       # Sample count of references to valid blocks.
system.l2cache.tags.avg_refs                 6.962081                       # Average number of references to valid blocks.
system.l2cache.tags.warmup_cycle                    0                       # Cycle when the warmup percentage was hit.
system.l2cache.tags.occ_blocks::.writebacks    42.017426                       # Average occupied blocks per requestor
system.l2cache.tags.occ_blocks::.cpu.inst  1087.701841                       # Average occupied blocks per requestor
system.l2cache.tags.occ_blocks::.cpu.data  1893.058142                       # Average occupied blocks per requestor
system.l2cache.tags.occ_blocks::.cpu.dcache.prefetcher   889.330662                       # Average occupied blocks per requestor
system.l2cache.tags.occ_blocks::.l2cache.prefetcher   183.891930                       # Average occupied blocks per requestor
system.l2cache.tags.occ_percent::.writebacks     0.010258                       # Average percentage of cache occupancy
system.l2cache.tags.occ_percent::.cpu.inst     0.265552                       # Average percentage of cache occupancy
system.l2cache.tags.occ_percent::.cpu.data     0.462172                       # Average percentage of cache occupancy
system.l2cache.tags.occ_percent::.cpu.dcache.prefetcher     0.217122                       # Average percentage of cache occupancy
system.l2cache.tags.occ_percent::.l2cache.prefetcher     0.044895                       # Average percentage of cache occupancy
system.l2cache.tags.occ_percent::total              1                       # Average percentage of cache occupancy
system.l2cache.tags.occ_task_id_blocks::1022         1009                       # Occupied blocks per task id
system.l2cache.tags.occ_task_id_blocks::1024         3087                       # Occupied blocks per task id
system.l2cache.tags.age_task_id_blocks_1022::0            8                       # Occupied blocks per task id
system.l2cache.tags.age_task_id_blocks_1022::1            2                       # Occupied blocks per task id
system.l2cache.tags.age_task_id_blocks_1022::2           25                       # Occupied blocks per task id
system.l2cache.tags.age_task_id_blocks_1022::3          974                       # Occupied blocks per task id
system.l2cache.tags.age_task_id_blocks_1024::0          168                       # Occupied blocks per task id
system.l2cache.tags.age_task_id_blocks_1024::1          112                       # Occupied blocks per task id
system.l2cache.tags.age_task_id_blocks_1024::2          125                       # Occupied blocks per task id
system.l2cache.tags.age_task_id_blocks_1024::3         2682                       # Occupied blocks per task id
system.l2cache.tags.occ_task_id_percent::1022     0.246338                       # Percentage of cache occupancy per task id
system.l2cache.tags.occ_task_id_percent::1024     0.753662                       # Percentage of cache occupancy per task id
system.l2cache.tags.tag_accesses                84664                       # Number of tag accesses
system.l2cache.tags.data_accesses               84664                       # Number of data accesses
system.mem_ctrl.pwrStateResidencyTicks::UNDEFINED    787638400                       # Cumulative time (in ticks) in various power states
system.mem_ctrl.bytes_read::.cpu.inst           16256                       # Number of bytes read from this memory
system.mem_ctrl.bytes_read::.cpu.data            9280                       # Number of bytes read from this memory
system.mem_ctrl.bytes_read::.cpu.dcache.prefetcher         2112                       # Number of bytes read from this memory
system.mem_ctrl.bytes_read::total               27648                       # Number of bytes read from this memory
system.mem_ctrl.bytes_inst_read::.cpu.inst        16256                       # Number of instructions bytes read from this memory
system.mem_ctrl.bytes_inst_read::total          16256                       # Number of instructions bytes read from this memory
system.mem_ctrl.bytes_written::.writebacks         2496                       # Number of bytes written to this memory
system.mem_ctrl.bytes_written::total             2496                       # Number of bytes written to this memory
system.mem_ctrl.num_reads::.cpu.inst              254                       # Number of read requests responded to by this memory
system.mem_ctrl.num_reads::.cpu.data              145                       # Number of read requests responded to by this memory
system.mem_ctrl.num_reads::.cpu.dcache.prefetcher           33                       # Number of read requests responded to by this memory
system.mem_ctrl.num_reads::total                  432                       # Number of read requests responded to by this memory
system.mem_ctrl.num_writes::.writebacks            39                       # Number of write requests responded to by this memory
system.mem_ctrl.num_writes::total                  39                       # Number of write requests responded to by this memory
system.mem_ctrl.bw_read::.cpu.inst           20638912                       # Total read bandwidth from this memory (bytes/s)
system.mem_ctrl.bw_read::.cpu.data           11782056                       # Total read bandwidth from this memory (bytes/s)
system.mem_ctrl.bw_read::.cpu.dcache.prefetcher      2681434                       # Total read bandwidth from this memory (bytes/s)
system.mem_ctrl.bw_read::total               35102402                       # Total read bandwidth from this memory (bytes/s)
system.mem_ctrl.bw_inst_read::.cpu.inst      20638912                       # Instruction read bandwidth from this memory (bytes/s)
system.mem_ctrl.bw_inst_read::total          20638912                       # Instruction read bandwidth from this memory (bytes/s)
system.mem_ctrl.bw_write::.writebacks         3168967                       # Write bandwidth from this memory (bytes/s)
system.mem_ctrl.bw_write::total               3168967                       # Write bandwidth from this memory (bytes/s)
system.mem_ctrl.bw_total::.writebacks         3168967                       # Total bandwidth to/from this memory (bytes/s)
system.mem_ctrl.bw_total::.cpu.inst          20638912                       # Total bandwidth to/from this memory (bytes/s)
system.mem_ctrl.bw_total::.cpu.data          11782056                       # Total bandwidth to/from this memory (bytes/s)
system.mem_ctrl.bw_total::.cpu.dcache.prefetcher      2681434                       # Total bandwidth to/from this memory (bytes/s)
system.mem_ctrl.bw_total::total              38271369                       # Total bandwidth to/from this memory (bytes/s)

---------- End Simulation Statistics   ----------
