
---------- Begin Simulation Statistics ----------
final_tick                                 1090806800                       # Number of ticks from beginning of simulation (restored from checkpoints and never reset)
host_inst_rate                                 165610                       # Simulator instruction rate (inst/s)
host_mem_usage                                4402808                       # Number of bytes of host memory used
host_op_rate                                   286798                       # Simulator op (including micro ops) rate (op/s)
host_seconds                                    12.57                       # Real time elapsed on the host
host_tick_rate                               86761076                       # Simulator tick rate (ticks/s)
sim_freq                                 1000000000000                       # Frequency of simulated ticks
sim_insts                                     2082123                       # Number of instructions simulated
sim_ops                                       3605769                       # Number of ops (including micro ops) simulated
sim_seconds                                  0.001091                       # Number of seconds simulated
sim_ticks                                  1090806800                       # Number of ticks simulated
system.cpu.branchPred.BTBCorrect                    0                       # Number of correct BTB predictions (this stat may not work properly.
system.cpu.branchPred.BTBHitPct              0.000000                       # BTB Hit Percentage
system.cpu.branchPred.BTBHits                       0                       # Number of BTB hits
system.cpu.branchPred.BTBLookups               428876                       # Number of BTB lookups
system.cpu.branchPred.RASInCorrect                  5                       # Number of incorrect RAS predictions.
system.cpu.branchPred.condIncorrect             23979                       # Number of conditional branches incorrect
system.cpu.branchPred.condPredicted            456207                       # Number of conditional branches predicted
system.cpu.branchPred.indirectHits             234277                       # Number of indirect target hits.
system.cpu.branchPred.indirectLookups          428876                       # Number of indirect predictor lookups.
system.cpu.branchPred.indirectMisses           194599                       # Number of indirect misses.
system.cpu.branchPred.lookups                  482215                       # Number of BP lookups
system.cpu.branchPred.usedRAS                   11218                       # Number of times the RAS was used to get a target.
system.cpu.branchPredindirectMispredicted        12154                       # Number of mispredicted indirect branches.
system.cpu.cc_regfile_reads                   2441460                       # number of cc regfile reads
system.cpu.cc_regfile_writes                  1921194                       # number of cc regfile writes
system.cpu.commit.amos                              0                       # Number of atomic instructions committed
system.cpu.commit.branchMispredicts             24086                       # The number of times a branch was mispredicted
system.cpu.commit.branches                     339911                       # Number of branches committed
system.cpu.commit.bw_lim_events                599427                       # number cycles where commit BW limit reached
system.cpu.commit.commitNonSpecStalls             732                       # The number of times commit has been forced to stall to communicate backwards
system.cpu.commit.commitSquashedInsts          872032                       # The number of squashed insts skipped by commit
system.cpu.commit.committedInsts              2082123                       # Number of instructions committed
system.cpu.commit.committedOps                3605769                       # Number of ops (including micro ops) committed
system.cpu.commit.committed_per_cycle::samples      2337126                       # Number of insts commited each cycle
system.cpu.commit.committed_per_cycle::mean     1.542822                       # Number of insts commited each cycle
system.cpu.commit.committed_per_cycle::stdev     1.724431                       # Number of insts commited each cycle
system.cpu.commit.committed_per_cycle::underflows            0      0.00%      0.00% # Number of insts commited each cycle
system.cpu.commit.committed_per_cycle::0      1157263     49.52%     49.52% # Number of insts commited each cycle
system.cpu.commit.committed_per_cycle::1       182178      7.79%     57.31% # Number of insts commited each cycle
system.cpu.commit.committed_per_cycle::2       168891      7.23%     64.54% # Number of insts commited each cycle
system.cpu.commit.committed_per_cycle::3       229367      9.81%     74.35% # Number of insts commited each cycle
system.cpu.commit.committed_per_cycle::4       599427     25.65%    100.00% # Number of insts commited each cycle
system.cpu.commit.committed_per_cycle::overflows            0      0.00%    100.00% # Number of insts commited each cycle
system.cpu.commit.committed_per_cycle::min_value            0                       # Number of insts commited each cycle
system.cpu.commit.committed_per_cycle::max_value            4                       # Number of insts commited each cycle
system.cpu.commit.committed_per_cycle::total      2337126                       # Number of insts commited each cycle
system.cpu.commit.fp_insts                     117456                       # Number of committed floating point instructions.
system.cpu.commit.function_calls                 9334                       # Number of function calls committed.
system.cpu.commit.int_insts                   3520703                       # Number of committed integer instructions.
system.cpu.commit.loads                        490779                       # Number of loads committed
system.cpu.commit.membars                           1                       # Number of memory barriers committed
system.cpu.commit.op_class_0::No_OpClass        20067      0.56%      0.56% # Class of committed instruction
system.cpu.commit.op_class_0::IntAlu          2815746     78.09%     78.65% # Class of committed instruction
system.cpu.commit.op_class_0::IntMult              27      0.00%     78.65% # Class of committed instruction
system.cpu.commit.op_class_0::IntDiv            36453      1.01%     79.66% # Class of committed instruction
system.cpu.commit.op_class_0::FloatAdd           7464      0.21%     79.87% # Class of committed instruction
system.cpu.commit.op_class_0::FloatCmp              0      0.00%     79.87% # Class of committed instruction
system.cpu.commit.op_class_0::FloatCvt           1200      0.03%     79.90% # Class of committed instruction
system.cpu.commit.op_class_0::FloatMult             0      0.00%     79.90% # Class of committed instruction
system.cpu.commit.op_class_0::FloatMultAcc            0      0.00%     79.90% # Class of committed instruction
system.cpu.commit.op_class_0::FloatDiv              0      0.00%     79.90% # Class of committed instruction
system.cpu.commit.op_class_0::FloatMisc             0      0.00%     79.90% # Class of committed instruction
system.cpu.commit.op_class_0::FloatSqrt             0      0.00%     79.90% # Class of committed instruction
system.cpu.commit.op_class_0::SimdAdd            6208      0.17%     80.07% # Class of committed instruction
system.cpu.commit.op_class_0::SimdAddAcc            0      0.00%     80.07% # Class of committed instruction
system.cpu.commit.op_class_0::SimdAlu           14246      0.40%     80.47% # Class of committed instruction
system.cpu.commit.op_class_0::SimdCmp               0      0.00%     80.47% # Class of committed instruction
system.cpu.commit.op_class_0::SimdCvt           12098      0.34%     80.80% # Class of committed instruction
system.cpu.commit.op_class_0::SimdMisc          13927      0.39%     81.19% # Class of committed instruction
system.cpu.commit.op_class_0::SimdMult              0      0.00%     81.19% # Class of committed instruction
system.cpu.commit.op_class_0::SimdMultAcc            0      0.00%     81.19% # Class of committed instruction
system.cpu.commit.op_class_0::SimdShift          1143      0.03%     81.22% # Class of committed instruction
system.cpu.commit.op_class_0::SimdShiftAcc            0      0.00%     81.22% # Class of committed instruction
system.cpu.commit.op_class_0::SimdDiv               0      0.00%     81.22% # Class of committed instruction
system.cpu.commit.op_class_0::SimdSqrt              0      0.00%     81.22% # Class of committed instruction
system.cpu.commit.op_class_0::SimdFloatAdd         6144      0.17%     81.39% # Class of committed instruction
system.cpu.commit.op_class_0::SimdFloatAlu            0      0.00%     81.39% # Class of committed instruction
system.cpu.commit.op_class_0::SimdFloatCmp            0      0.00%     81.39% # Class of committed instruction
system.cpu.commit.op_class_0::SimdFloatCvt         2816      0.08%     81.47% # Class of committed instruction
system.cpu.commit.op_class_0::SimdFloatDiv            0      0.00%     81.47% # Class of committed instruction
system.cpu.commit.op_class_0::SimdFloatMisc            0      0.00%     81.47% # Class of committed instruction
system.cpu.commit.op_class_0::SimdFloatMult         6400      0.18%     81.65% # Class of committed instruction
system.cpu.commit.op_class_0::SimdFloatMultAcc            0      0.00%     81.65% # Class of committed instruction
system.cpu.commit.op_class_0::SimdFloatSqrt            0      0.00%     81.65% # Class of committed instruction
system.cpu.commit.op_class_0::SimdReduceAdd            0      0.00%     81.65% # Class of committed instruction
system.cpu.commit.op_class_0::SimdReduceAlu            0      0.00%     81.65% # Class of committed instruction
system.cpu.commit.op_class_0::SimdReduceCmp            0      0.00%     81.65% # Class of committed instruction
system.cpu.commit.op_class_0::SimdFloatReduceAdd            0      0.00%     81.65% # Class of committed instruction
system.cpu.commit.op_class_0::SimdFloatReduceCmp            0      0.00%     81.65% # Class of committed instruction
system.cpu.commit.op_class_0::SimdAes               0      0.00%     81.65% # Class of committed instruction
system.cpu.commit.op_class_0::SimdAesMix            0      0.00%     81.65% # Class of committed instruction
system.cpu.commit.op_class_0::SimdSha1Hash            0      0.00%     81.65% # Class of committed instruction
system.cpu.commit.op_class_0::SimdSha1Hash2            0      0.00%     81.65% # Class of committed instruction
system.cpu.commit.op_class_0::SimdSha256Hash            0      0.00%     81.65% # Class of committed instruction
system.cpu.commit.op_class_0::SimdSha256Hash2            0      0.00%     81.65% # Class of committed instruction
system.cpu.commit.op_class_0::SimdShaSigma2            0      0.00%     81.65% # Class of committed instruction
system.cpu.commit.op_class_0::SimdShaSigma3            0      0.00%     81.65% # Class of committed instruction
system.cpu.commit.op_class_0::SimdPredAlu            0      0.00%     81.65% # Class of committed instruction
system.cpu.commit.op_class_0::MemRead          465537     12.91%     94.56% # Class of committed instruction
system.cpu.commit.op_class_0::MemWrite         158982      4.41%     98.97% # Class of committed instruction
system.cpu.commit.op_class_0::FloatMemRead        25242      0.70%     99.67% # Class of committed instruction
system.cpu.commit.op_class_0::FloatMemWrite        12069      0.33%    100.00% # Class of committed instruction
system.cpu.commit.op_class_0::IprAccess             0      0.00%    100.00% # Class of committed instruction
system.cpu.commit.op_class_0::InstPrefetch            0      0.00%    100.00% # Class of committed instruction
system.cpu.commit.op_class_0::total           3605769                       # Class of committed instruction
system.cpu.commit.refs                         661830                       # Number of memory references committed
system.cpu.commit.swp_count                         0                       # Number of s/w prefetches committed
system.cpu.commit.vec_insts                         0                       # Number of committed Vector instructions.
system.cpu.committedInsts                     2082123                       # Number of Instructions Simulated
system.cpu.committedOps                       3605769                       # Number of Ops (including micro ops) Simulated
system.cpu.cpi                               1.309730                       # CPI: Cycles Per Instruction
system.cpu.cpi_total                         1.309730                       # CPI: Total CPI of All Threads
system.cpu.dcache.prefetcher.num_hwpf_issued         7718                       # number of hwpf issued
system.cpu.dcache.prefetcher.pfBufferHit        33015                       # number of redundant prefetches already in prefetch queue
system.cpu.dcache.prefetcher.pfIdentified        47640                       # number of prefetch candidates identified
system.cpu.dcache.prefetcher.pfInCache              0                       # number of redundant prefetches already in cache/mshr dropped
system.cpu.dcache.prefetcher.pfRemovedFull            0                       # number of prefetches dropped due to prefetch queue size
system.cpu.dcache.prefetcher.pfSpanPage          4216                       # number of prefetches that crossed the page
system.cpu.decode.BlockedCycles               1033521                       # Number of cycles decode is blocked
system.cpu.decode.DecodedInsts                4692334                       # Number of instructions handled by decode
system.cpu.decode.IdleCycles                   291045                       # Number of cycles decode is idle
system.cpu.decode.RunCycles                   1134217                       # Number of cycles decode is running
system.cpu.decode.SquashCycles                  24154                       # Number of cycles decode is squashing
system.cpu.decode.UnblockCycles                 92522                       # Number of cycles decode is unblocking
system.cpu.dtb.rdAccesses                      573468                       # TLB accesses on read requests
system.cpu.dtb.rdMisses                          2045                       # TLB misses on read requests
system.cpu.dtb.wrAccesses                      190323                       # TLB accesses on write requests
system.cpu.dtb.wrMisses                           162                       # TLB misses on write requests
system.cpu.fetch.Branches                      482215                       # Number of branches that fetch encountered
system.cpu.fetch.CacheLines                    239446                       # Number of cache lines fetched
system.cpu.fetch.Cycles                       2223473                       # Number of cycles fetch has run and was not squashing or blocked
system.cpu.fetch.IcacheSquashes                  4538                       # Number of outstanding Icache misses that were squashed
system.cpu.fetch.Insts                        2842206                       # Number of instructions fetch has processed
system.cpu.fetch.MiscStallCycles                  131                       # Number of cycles fetch has spent waiting on interrupts, or bad addresses, or out of MSHRs
system.cpu.fetch.PendingQuiesceStallCycles           16                       # Number of stall cycles due to pending quiesce instructions
system.cpu.fetch.PendingTrapStallCycles           733                       # Number of stall cycles due to pending traps
system.cpu.fetch.SquashCycles                   48308                       # Number of cycles fetch has spent squashing
system.cpu.fetch.branchRate                  0.176829                       # Number of branch fetches per cycle
system.cpu.fetch.icacheStallCycles             326952                       # Number of cycles fetch is stalled on an Icache miss
system.cpu.fetch.predictedBranches             245495                       # Number of branches that fetch has predicted taken
system.cpu.fetch.rate                        1.042240                       # Number of inst fetches per cycle
system.cpu.fetch.rateDist::samples            2575459                       # Number of instructions fetched each cycle (Total)
system.cpu.fetch.rateDist::mean              1.928247                       # Number of instructions fetched each cycle (Total)
system.cpu.fetch.rateDist::stdev             1.931056                       # Number of instructions fetched each cycle (Total)
system.cpu.fetch.rateDist::underflows               0      0.00%      0.00% # Number of instructions fetched each cycle (Total)
system.cpu.fetch.rateDist::0                  1230427     47.78%     47.78% # Number of instructions fetched each cycle (Total)
system.cpu.fetch.rateDist::1                    72996      2.83%     50.61% # Number of instructions fetched each cycle (Total)
system.cpu.fetch.rateDist::2                    59647      2.32%     52.93% # Number of instructions fetched each cycle (Total)
system.cpu.fetch.rateDist::3                    75725      2.94%     55.87% # Number of instructions fetched each cycle (Total)
system.cpu.fetch.rateDist::4                  1136664     44.13%    100.00% # Number of instructions fetched each cycle (Total)
system.cpu.fetch.rateDist::overflows                0      0.00%    100.00% # Number of instructions fetched each cycle (Total)
system.cpu.fetch.rateDist::min_value                0                       # Number of instructions fetched each cycle (Total)
system.cpu.fetch.rateDist::max_value                4                       # Number of instructions fetched each cycle (Total)
system.cpu.fetch.rateDist::total              2575459                       # Number of instructions fetched each cycle (Total)
system.cpu.fp_regfile_reads                    191058                       # number of floating regfile reads
system.cpu.fp_regfile_writes                   100101                       # number of floating regfile writes
system.cpu.fuPool.fu_ticks_busy::IntALU(0)    215872400                       # Total ticks fu was busy
system.cpu.fuPool.fu_ticks_busy::IntALU(1)    215872400                       # Total ticks fu was busy
system.cpu.fuPool.fu_ticks_busy::IntALU(2)    215872400                       # Total ticks fu was busy
system.cpu.fuPool.fu_ticks_busy::IntALU(3)    215872000                       # Total ticks fu was busy
system.cpu.fuPool.fu_ticks_busy::IntALU(4)    215872000                       # Total ticks fu was busy
system.cpu.fuPool.fu_ticks_busy::IntALU(5)    215872000                       # Total ticks fu was busy
system.cpu.fuPool.fu_ticks_busy::IntMultDiv(0)      8078000                       # Total ticks fu was busy
system.cpu.fuPool.fu_ticks_busy::IntMultDiv(1)      8077600                       # Total ticks fu was busy
system.cpu.fuPool.fu_ticks_busy::FP_ALU(0)      1016000                       # Total ticks fu was busy
system.cpu.fuPool.fu_ticks_busy::FP_ALU(1)      1016000                       # Total ticks fu was busy
system.cpu.fuPool.fu_ticks_busy::FP_ALU(2)      1015600                       # Total ticks fu was busy
system.cpu.fuPool.fu_ticks_busy::FP_ALU(3)      1015600                       # Total ticks fu was busy
system.cpu.fuPool.fu_ticks_busy::FP_MultDiv(0)            0                       # Total ticks fu was busy
system.cpu.fuPool.fu_ticks_busy::FP_MultDiv(1)            0                       # Total ticks fu was busy
system.cpu.fuPool.fu_ticks_busy::SIMD_Unit(0)      7106000                       # Total ticks fu was busy
system.cpu.fuPool.fu_ticks_busy::SIMD_Unit(1)      7083600                       # Total ticks fu was busy
system.cpu.fuPool.fu_ticks_busy::SIMD_Unit(2)      6966400                       # Total ticks fu was busy
system.cpu.fuPool.fu_ticks_busy::SIMD_Unit(3)      6988800                       # Total ticks fu was busy
system.cpu.fuPool.fu_ticks_busy::PredALU(0)            0                       # Total ticks fu was busy
system.cpu.fuPool.fu_ticks_busy::RdWrPort(0)     77888400                       # Total ticks fu was busy
system.cpu.fuPool.fu_ticks_busy::RdWrPort(1)     77856800                       # Total ticks fu was busy
system.cpu.fuPool.fu_ticks_busy::RdWrPort(2)     77816400                       # Total ticks fu was busy
system.cpu.fuPool.fu_ticks_busy::RdWrPort(3)     77830800                       # Total ticks fu was busy
system.cpu.fuPool.fu_ticks_busy::IprPort(0)            0                       # Total ticks fu was busy
system.cpu.fuPool.fu_ticks_busy::total     1654989200                       # Total ticks fu was busy
system.cpu.icache.prefetcher.num_hwpf_issued            0                       # number of hwpf issued
system.cpu.icache.prefetcher.pfBufferHit            0                       # number of redundant prefetches already in prefetch queue
system.cpu.icache.prefetcher.pfIdentified            0                       # number of prefetch candidates identified
system.cpu.icache.prefetcher.pfInCache              0                       # number of redundant prefetches already in cache/mshr dropped
system.cpu.icache.prefetcher.pfRemovedFull            0                       # number of prefetches dropped due to prefetch queue size
system.cpu.icache.prefetcher.pfSpanPage             0                       # number of prefetches that crossed the page
system.cpu.idleCycles                          151559                       # Total number of cycles that the CPU has spent unscheduled due to idling
system.cpu.iew.branchMispredicts                28447                       # Number of branch mispredicts detected at execute
system.cpu.iew.exec_branches                   369567                       # Number of branches executed
system.cpu.iew.exec_nop                             0                       # number of nop insts executed
system.cpu.iew.exec_rate                     1.514185                       # Inst execution rate
system.cpu.iew.exec_refs                       765526                       # number of memory reference insts executed
system.cpu.iew.exec_stores                     190313                       # Number of stores executed
system.cpu.iew.exec_swp                             0                       # number of swp insts executed
system.cpu.iew.iewBlockCycles                  688897                       # Number of cycles IEW is blocking
system.cpu.iew.iewDispLoadInsts                605562                       # Number of dispatched load instructions
system.cpu.iew.iewDispNonSpecInsts                916                       # Number of dispatched non-speculative instructions
system.cpu.iew.iewDispSquashedInsts               569                       # Number of squashed instructions skipped by dispatch
system.cpu.iew.iewDispStoreInsts               200596                       # Number of dispatched store instructions
system.cpu.iew.iewDispatchedInsts             4477746                       # Number of instructions dispatched to IQ
system.cpu.iew.iewExecLoadInsts                575213                       # Number of load instructions executed
system.cpu.iew.iewExecSquashedInsts             34279                       # Number of squashed instructions skipped in execute
system.cpu.iew.iewExecutedInsts               4129209                       # Number of executed instructions
system.cpu.iew.iewIQFullEvents                   3248                       # Number of times the IQ has become full, causing a stall
system.cpu.iew.iewIdleCycles                        0                       # Number of cycles IEW is idle
system.cpu.iew.iewLSQFullEvents                  9218                       # Number of times the LSQ has become full, causing a stall
system.cpu.iew.iewSquashCycles                  24154                       # Number of cycles IEW is squashing
system.cpu.iew.iewUnblockCycles                 15278                       # Number of cycles IEW is unblocking
system.cpu.iew.lsq.thread0.blockedLoads             0                       # Number of blocked loads due to partial load-store forwarding
system.cpu.iew.lsq.thread0.cacheBlocked           603                       # Number of times an access to memory failed due to the cache being blocked
system.cpu.iew.lsq.thread0.forwLoads            42384                       # Number of loads that had data forwarded from stores
system.cpu.iew.lsq.thread0.ignoredResponses          228                       # Number of memory responses ignored because the instruction is squashed
system.cpu.iew.lsq.thread0.invAddrLoads             0                       # Number of loads ignored due to an invalid address
system.cpu.iew.lsq.thread0.invAddrSwpfs             0                       # Number of software prefetches ignored due to an invalid address
system.cpu.iew.lsq.thread0.memOrderViolation           79                       # Number of memory ordering violations
system.cpu.iew.lsq.thread0.rescheduledLoads            0                       # Number of loads that were rescheduled
system.cpu.iew.lsq.thread0.squashedLoads       114781                       # Number of loads squashed
system.cpu.iew.lsq.thread0.squashedStores        29544                       # Number of stores squashed
system.cpu.iew.memOrderViolationEvents             79                       # Number of memory order violations
system.cpu.iew.predictedNotTakenIncorrect        20304                       # Number of branches that were predicted not taken incorrectly
system.cpu.iew.predictedTakenIncorrect           8143                       # Number of branches that were predicted taken incorrectly
system.cpu.iew.wb_consumers                   5865325                       # num instructions consuming a value
system.cpu.iew.wb_count                       4106900                       # cumulative count of insts written-back
system.cpu.iew.wb_fanout                     0.560480                       # average fanout of values written-back
system.cpu.iew.wb_producers                   3287400                       # num instructions producing a value
system.cpu.iew.wb_rate                       1.506004                       # insts written-back per cycle
system.cpu.iew.wb_sent                        4114018                       # cumulative count of insts sent to commit
system.cpu.int_regfile_reads                  6374746                       # number of integer regfile reads
system.cpu.int_regfile_writes                 3517275                       # number of integer regfile writes
system.cpu.ipc                               0.763516                       # IPC: Instructions Per Cycle
system.cpu.ipc_total                         0.763516                       # IPC: Total IPC of All Threads
system.cpu.iq.FU_type_0::No_OpClass             26015      0.62%      0.62% # Type of FU issued
system.cpu.iq.FU_type_0::IntAlu               3238084     77.77%     78.40% # Type of FU issued
system.cpu.iq.FU_type_0::IntMult                   50      0.00%     78.40% # Type of FU issued
system.cpu.iq.FU_type_0::IntDiv                 40339      0.97%     79.37% # Type of FU issued
system.cpu.iq.FU_type_0::FloatAdd                8930      0.21%     79.58% # Type of FU issued
system.cpu.iq.FU_type_0::FloatCmp                   0      0.00%     79.58% # Type of FU issued
system.cpu.iq.FU_type_0::FloatCvt                1228      0.03%     79.61% # Type of FU issued
system.cpu.iq.FU_type_0::FloatMult                  0      0.00%     79.61% # Type of FU issued
system.cpu.iq.FU_type_0::FloatMultAcc               0      0.00%     79.61% # Type of FU issued
system.cpu.iq.FU_type_0::FloatDiv                   0      0.00%     79.61% # Type of FU issued
system.cpu.iq.FU_type_0::FloatMisc                  0      0.00%     79.61% # Type of FU issued
system.cpu.iq.FU_type_0::FloatSqrt                  0      0.00%     79.61% # Type of FU issued
system.cpu.iq.FU_type_0::SimdAdd                 6795      0.16%     79.78% # Type of FU issued
system.cpu.iq.FU_type_0::SimdAddAcc                 0      0.00%     79.78% # Type of FU issued
system.cpu.iq.FU_type_0::SimdAlu                17930      0.43%     80.21% # Type of FU issued
system.cpu.iq.FU_type_0::SimdCmp                    0      0.00%     80.21% # Type of FU issued
system.cpu.iq.FU_type_0::SimdCvt                13677      0.33%     80.53% # Type of FU issued
system.cpu.iq.FU_type_0::SimdMisc               14471      0.35%     80.88% # Type of FU issued
system.cpu.iq.FU_type_0::SimdMult                   0      0.00%     80.88% # Type of FU issued
system.cpu.iq.FU_type_0::SimdMultAcc                0      0.00%     80.88% # Type of FU issued
system.cpu.iq.FU_type_0::SimdShift               2106      0.05%     80.93% # Type of FU issued
system.cpu.iq.FU_type_0::SimdShiftAcc               0      0.00%     80.93% # Type of FU issued
system.cpu.iq.FU_type_0::SimdDiv                    0      0.00%     80.93% # Type of FU issued
system.cpu.iq.FU_type_0::SimdSqrt                   0      0.00%     80.93% # Type of FU issued
system.cpu.iq.FU_type_0::SimdFloatAdd            6146      0.15%     81.08% # Type of FU issued
system.cpu.iq.FU_type_0::SimdFloatAlu               0      0.00%     81.08% # Type of FU issued
system.cpu.iq.FU_type_0::SimdFloatCmp               0      0.00%     81.08% # Type of FU issued
system.cpu.iq.FU_type_0::SimdFloatCvt            2823      0.07%     81.15% # Type of FU issued
system.cpu.iq.FU_type_0::SimdFloatDiv               0      0.00%     81.15% # Type of FU issued
system.cpu.iq.FU_type_0::SimdFloatMisc              0      0.00%     81.15% # Type of FU issued
system.cpu.iq.FU_type_0::SimdFloatMult           6414      0.15%     81.30% # Type of FU issued
system.cpu.iq.FU_type_0::SimdFloatMultAcc            0      0.00%     81.30% # Type of FU issued
system.cpu.iq.FU_type_0::SimdFloatSqrt              0      0.00%     81.30% # Type of FU issued
system.cpu.iq.FU_type_0::SimdReduceAdd              0      0.00%     81.30% # Type of FU issued
system.cpu.iq.FU_type_0::SimdReduceAlu              0      0.00%     81.30% # Type of FU issued
system.cpu.iq.FU_type_0::SimdReduceCmp              0      0.00%     81.30% # Type of FU issued
system.cpu.iq.FU_type_0::SimdFloatReduceAdd            0      0.00%     81.30% # Type of FU issued
system.cpu.iq.FU_type_0::SimdFloatReduceCmp            0      0.00%     81.30% # Type of FU issued
system.cpu.iq.FU_type_0::SimdAes                    0      0.00%     81.30% # Type of FU issued
system.cpu.iq.FU_type_0::SimdAesMix                 0      0.00%     81.30% # Type of FU issued
system.cpu.iq.FU_type_0::SimdSha1Hash               0      0.00%     81.30% # Type of FU issued
system.cpu.iq.FU_type_0::SimdSha1Hash2              0      0.00%     81.30% # Type of FU issued
system.cpu.iq.FU_type_0::SimdSha256Hash             0      0.00%     81.30% # Type of FU issued
system.cpu.iq.FU_type_0::SimdSha256Hash2            0      0.00%     81.30% # Type of FU issued
system.cpu.iq.FU_type_0::SimdShaSigma2              0      0.00%     81.30% # Type of FU issued
system.cpu.iq.FU_type_0::SimdShaSigma3              0      0.00%     81.30% # Type of FU issued
system.cpu.iq.FU_type_0::SimdPredAlu                0      0.00%     81.30% # Type of FU issued
system.cpu.iq.FU_type_0::MemRead               554629     13.32%     94.62% # Type of FU issued
system.cpu.iq.FU_type_0::MemWrite              179445      4.31%     98.93% # Type of FU issued
system.cpu.iq.FU_type_0::FloatMemRead           30988      0.74%     99.68% # Type of FU issued
system.cpu.iq.FU_type_0::FloatMemWrite          13421      0.32%    100.00% # Type of FU issued
system.cpu.iq.FU_type_0::IprAccess                  0      0.00%    100.00% # Type of FU issued
system.cpu.iq.FU_type_0::InstPrefetch               0      0.00%    100.00% # Type of FU issued
system.cpu.iq.FU_type_0::total                4163491                       # Type of FU issued
system.cpu.iq.fp_alu_accesses                  133602                       # Number of floating point alu accesses
system.cpu.iq.fp_inst_queue_reads              268469                       # Number of floating instruction queue reads
system.cpu.iq.fp_inst_queue_wakeup_accesses       130261                       # Number of floating instruction queue wakeup accesses
system.cpu.iq.fp_inst_queue_writes             173178                       # Number of floating instruction queue writes
system.cpu.iq.fu_busy_cnt                           0                       # FU busy when requested
system.cpu.iq.fu_busy_rate                          0                       # FU busy rate (busy events/executed inst)
system.cpu.iq.fu_full::No_OpClass                   0                       # attempts to use FU when none available
system.cpu.iq.fu_full::IntAlu                       0                       # attempts to use FU when none available
system.cpu.iq.fu_full::IntMult                      0                       # attempts to use FU when none available
system.cpu.iq.fu_full::IntDiv                       0                       # attempts to use FU when none available
system.cpu.iq.fu_full::FloatAdd                     0                       # attempts to use FU when none available
system.cpu.iq.fu_full::FloatCmp                     0                       # attempts to use FU when none available
system.cpu.iq.fu_full::FloatCvt                     0                       # attempts to use FU when none available
system.cpu.iq.fu_full::FloatMult                    0                       # attempts to use FU when none available
system.cpu.iq.fu_full::FloatMultAcc                 0                       # attempts to use FU when none available
system.cpu.iq.fu_full::FloatDiv                     0                       # attempts to use FU when none available
system.cpu.iq.fu_full::FloatMisc                    0                       # attempts to use FU when none available
system.cpu.iq.fu_full::FloatSqrt                    0                       # attempts to use FU when none available
system.cpu.iq.fu_full::SimdAdd                      0                       # attempts to use FU when none available
system.cpu.iq.fu_full::SimdAddAcc                   0                       # attempts to use FU when none available
system.cpu.iq.fu_full::SimdAlu                      0                       # attempts to use FU when none available
system.cpu.iq.fu_full::SimdCmp                      0                       # attempts to use FU when none available
system.cpu.iq.fu_full::SimdCvt                      0                       # attempts to use FU when none available
system.cpu.iq.fu_full::SimdMisc                     0                       # attempts to use FU when none available
system.cpu.iq.fu_full::SimdMult                     0                       # attempts to use FU when none available
system.cpu.iq.fu_full::SimdMultAcc                  0                       # attempts to use FU when none available
system.cpu.iq.fu_full::SimdShift                    0                       # attempts to use FU when none available
system.cpu.iq.fu_full::SimdShiftAcc                 0                       # attempts to use FU when none available
system.cpu.iq.fu_full::SimdDiv                      0                       # attempts to use FU when none available
system.cpu.iq.fu_full::SimdSqrt                     0                       # attempts to use FU when none available
system.cpu.iq.fu_full::SimdFloatAdd                 0                       # attempts to use FU when none available
system.cpu.iq.fu_full::SimdFloatAlu                 0                       # attempts to use FU when none available
system.cpu.iq.fu_full::SimdFloatCmp                 0                       # attempts to use FU when none available
system.cpu.iq.fu_full::SimdFloatCvt                 0                       # attempts to use FU when none available
system.cpu.iq.fu_full::SimdFloatDiv                 0                       # attempts to use FU when none available
system.cpu.iq.fu_full::SimdFloatMisc                0                       # attempts to use FU when none available
system.cpu.iq.fu_full::SimdFloatMult                0                       # attempts to use FU when none available
system.cpu.iq.fu_full::SimdFloatMultAcc             0                       # attempts to use FU when none available
system.cpu.iq.fu_full::SimdFloatSqrt                0                       # attempts to use FU when none available
system.cpu.iq.fu_full::SimdReduceAdd                0                       # attempts to use FU when none available
system.cpu.iq.fu_full::SimdReduceAlu                0                       # attempts to use FU when none available
system.cpu.iq.fu_full::SimdReduceCmp                0                       # attempts to use FU when none available
system.cpu.iq.fu_full::SimdFloatReduceAdd            0                       # attempts to use FU when none available
system.cpu.iq.fu_full::SimdFloatReduceCmp            0                       # attempts to use FU when none available
system.cpu.iq.fu_full::SimdAes                      0                       # attempts to use FU when none available
system.cpu.iq.fu_full::SimdAesMix                   0                       # attempts to use FU when none available
system.cpu.iq.fu_full::SimdSha1Hash                 0                       # attempts to use FU when none available
system.cpu.iq.fu_full::SimdSha1Hash2                0                       # attempts to use FU when none available
system.cpu.iq.fu_full::SimdSha256Hash               0                       # attempts to use FU when none available
system.cpu.iq.fu_full::SimdSha256Hash2              0                       # attempts to use FU when none available
system.cpu.iq.fu_full::SimdShaSigma2                0                       # attempts to use FU when none available
system.cpu.iq.fu_full::SimdShaSigma3                0                       # attempts to use FU when none available
system.cpu.iq.fu_full::SimdPredAlu                  0                       # attempts to use FU when none available
system.cpu.iq.fu_full::MemRead                      0                       # attempts to use FU when none available
system.cpu.iq.fu_full::MemWrite                     0                       # attempts to use FU when none available
system.cpu.iq.fu_full::FloatMemRead                 0                       # attempts to use FU when none available
system.cpu.iq.fu_full::FloatMemWrite                0                       # attempts to use FU when none available
system.cpu.iq.fu_full::IprAccess                    0                       # attempts to use FU when none available
system.cpu.iq.fu_full::InstPrefetch                 0                       # attempts to use FU when none available
system.cpu.iq.int_alu_accesses                4003874                       # Number of integer alu accesses
system.cpu.iq.int_inst_queue_reads           10652142                       # Number of integer instruction queue reads
system.cpu.iq.int_inst_queue_wakeup_accesses      3976639                       # Number of integer instruction queue wakeup accesses
system.cpu.iq.int_inst_queue_writes           5176613                       # Number of integer instruction queue writes
system.cpu.iq.iqInstsAdded                    4476667                       # Number of instructions added to the IQ (excludes non-spec)
system.cpu.iq.iqInstsIssued                   4163491                       # Number of instructions issued
system.cpu.iq.iqNonSpecInstsAdded                1079                       # Number of non-speculative instructions added to the IQ
system.cpu.iq.iqSquashedInstsExamined          871966                       # Number of squashed instructions iterated over during squash; mainly for profiling
system.cpu.iq.iqSquashedInstsIssued             18173                       # Number of squashed instructions issued
system.cpu.iq.iqSquashedNonSpecRemoved            347                       # Number of squashed non-spec instructions that were removed
system.cpu.iq.iqSquashedOperandsExamined      1299814                       # Number of squashed operands that are examined and possibly removed from graph
system.cpu.iq.issued_per_cycle::samples       2575459                       # Number of insts issued each cycle
system.cpu.iq.issued_per_cycle::mean         1.616602                       # Number of insts issued each cycle
system.cpu.iq.issued_per_cycle::stdev        1.667421                       # Number of insts issued each cycle
system.cpu.iq.issued_per_cycle::underflows            0      0.00%      0.00% # Number of insts issued each cycle
system.cpu.iq.issued_per_cycle::0             1166100     45.28%     45.28% # Number of insts issued each cycle
system.cpu.iq.issued_per_cycle::1              175401      6.81%     52.09% # Number of insts issued each cycle
system.cpu.iq.issued_per_cycle::2              303350     11.78%     63.87% # Number of insts issued each cycle
system.cpu.iq.issued_per_cycle::3              341042     13.24%     77.11% # Number of insts issued each cycle
system.cpu.iq.issued_per_cycle::4              589566     22.89%    100.00% # Number of insts issued each cycle
system.cpu.iq.issued_per_cycle::overflows            0      0.00%    100.00% # Number of insts issued each cycle
system.cpu.iq.issued_per_cycle::min_value            0                       # Number of insts issued each cycle
system.cpu.iq.issued_per_cycle::max_value            4                       # Number of insts issued each cycle
system.cpu.iq.issued_per_cycle::total         2575459                       # Number of insts issued each cycle
system.cpu.iq.rate                           1.526756                       # Inst issue rate
system.cpu.iq.vec_alu_accesses                      0                       # Number of vector alu accesses
system.cpu.iq.vec_inst_queue_reads                  0                       # Number of vector instruction queue reads
system.cpu.iq.vec_inst_queue_wakeup_accesses            0                       # Number of vector instruction queue wakeup accesses
system.cpu.iq.vec_inst_queue_writes                 0                       # Number of vector instruction queue writes
system.cpu.itb.rdAccesses                           0                       # TLB accesses on read requests
system.cpu.itb.rdMisses                             0                       # TLB misses on read requests
system.cpu.itb.wrAccesses                      239569                       # TLB accesses on write requests
system.cpu.itb.wrMisses                           360                       # TLB misses on write requests
system.cpu.memDep0.conflictingLoads             10078                       # Number of conflicting loads.
system.cpu.memDep0.conflictingStores             1709                       # Number of conflicting stores.
system.cpu.memDep0.insertedLoads               605562                       # Number of loads inserted to the mem dependence unit.
system.cpu.memDep0.insertedStores              200596                       # Number of stores inserted to the mem dependence unit.
system.cpu.misc_regfile_reads                 1542509                       # number of misc regfile reads
system.cpu.misc_regfile_writes                    675                       # number of misc regfile writes
system.cpu.numCycles                          2727018                       # number of cpu cycles simulated
system.cpu.numWorkItemsCompleted                    0                       # number of work items this cpu completed
system.cpu.numWorkItemsStarted                      0                       # number of work items this cpu started
system.cpu.process.numSyscalls                     56                       # Number of system calls
system.cpu.rename.BlockCycles                  841034                       # Number of cycles rename is blocking
system.cpu.rename.CommittedMaps               4924443                       # Number of HB maps that are committed
system.cpu.rename.FullRegisterEvents               24                       # Number of times there has been no free registers
system.cpu.rename.IQFullEvents                  51024                       # Number of times rename has blocked due to IQ full
system.cpu.rename.IdleCycles                   343209                       # Number of cycles rename is idle
system.cpu.rename.LQFullEvents                  15196                       # Number of times rename has blocked due to LQ full
system.cpu.rename.ROBFullEvents                  5379                       # Number of times rename has blocked due to ROB full
system.cpu.rename.RenameLookups              12160580                       # Number of register rename lookups that rename has made
system.cpu.rename.RenamedInsts                4617877                       # Number of instructions processed by rename
system.cpu.rename.RenamedOperands             6296887                       # Number of destination operands rename has renamed
system.cpu.rename.RunCycles                   1166428                       # Number of cycles rename is running
system.cpu.rename.SQFullEvents                  76926                       # Number of times rename has blocked due to SQ full
system.cpu.rename.SquashCycles                  24154                       # Number of cycles rename is squashing
system.cpu.rename.UnblockCycles                181326                       # Number of cycles rename is unblocking
system.cpu.rename.UndoneMaps                  1372421                       # Number of HB maps that are undone due to squashing
system.cpu.rename.fp_rename_lookups            224054                       # Number of floating rename lookups
system.cpu.rename.int_rename_lookups          7303640                       # Number of integer rename lookups
system.cpu.rename.serializeStallCycles          19308                       # count of cycles rename stalled for serializing inst
system.cpu.rename.serializingInsts                867                       # count of serializing insts renamed
system.cpu.rename.skidInsts                    218480                       # count of insts added to the skid buffer
system.cpu.rename.tempSerializingInsts            915                       # count of temporary serializing insts renamed
system.cpu.rob.rob_reads                      6215500                       # The number of ROB reads
system.cpu.rob.rob_writes                     9194854                       # The number of ROB writes
system.cpu.timesIdled                            1534                       # Number of times that the entire CPU went into an idle state and unscheduled itself
system.l2bus.snoop_filter.hit_multi_requests            9                       # Number of requests hitting in the snoop filter with multiple (>1) holders of the requested data.
system.l2bus.snoop_filter.hit_multi_snoops            0                       # Number of snoops hitting in the snoop filter with multiple (>1) holders of the requested data.
system.l2bus.snoop_filter.hit_single_requests        18066                       # Number of requests hitting in the snoop filter with a single holder of the requested data.
system.l2bus.snoop_filter.hit_single_snoops          427                       # Number of snoops hitting in the snoop filter with a single holder of the requested data.
system.l2bus.snoop_filter.tot_requests          37412                       # Total number of requests made to the snoop filter.
system.l2bus.snoop_filter.tot_snoops              427                       # Total number of snoops made to the snoop filter.
system.l2cache.prefetcher.num_hwpf_issued          623                       # number of hwpf issued
system.l2cache.prefetcher.pfBufferHit               0                       # number of redundant prefetches already in prefetch queue
system.l2cache.prefetcher.pfIdentified            623                       # number of prefetch candidates identified
system.l2cache.prefetcher.pfInCache                 0                       # number of redundant prefetches already in cache/mshr dropped
system.l2cache.prefetcher.pfRemovedFull             0                       # number of prefetches dropped due to prefetch queue size
system.l2cache.prefetcher.pfSpanPage              113                       # number of prefetches that crossed the page
system.membus.snoop_filter.hit_multi_requests            0                       # Number of requests hitting in the snoop filter with multiple (>1) holders of the requested data.
system.membus.snoop_filter.hit_multi_snoops            0                       # Number of snoops hitting in the snoop filter with multiple (>1) holders of the requested data.
system.membus.snoop_filter.hit_single_requests         9227                       # Number of requests hitting in the snoop filter with a single holder of the requested data.
system.membus.snoop_filter.hit_single_snoops            0                       # Number of snoops hitting in the snoop filter with a single holder of the requested data.
system.membus.snoop_filter.tot_requests         22571                       # Total number of requests made to the snoop filter.
system.membus.snoop_filter.tot_snoops               0                       # Total number of snoops made to the snoop filter.
system.membus.pwrStateResidencyTicks::UNDEFINED   1090806800                       # Cumulative time (in ticks) in various power states
system.membus.trans_dist::ReadResp              11996                       # Transaction distribution
system.membus.trans_dist::WritebackDirty         1311                       # Transaction distribution
system.membus.trans_dist::CleanEvict             7916                       # Transaction distribution
system.membus.trans_dist::ReadExReq              1348                       # Transaction distribution
system.membus.trans_dist::ReadExResp             1348                       # Transaction distribution
system.membus.trans_dist::ReadSharedReq         11996                       # Transaction distribution
system.membus.pkt_count_system.l2cache.mem_side::system.mem_ctrl.port        35915                       # Packet count per connected master and slave (bytes)
system.membus.pkt_count_system.l2cache.mem_side::total        35915                       # Packet count per connected master and slave (bytes)
system.membus.pkt_count::total                  35915                       # Packet count per connected master and slave (bytes)
system.membus.pkt_size_system.l2cache.mem_side::system.mem_ctrl.port       937920                       # Cumulative packet size per connected master and slave (bytes)
system.membus.pkt_size_system.l2cache.mem_side::total       937920                       # Cumulative packet size per connected master and slave (bytes)
system.membus.pkt_size::total                  937920                       # Cumulative packet size per connected master and slave (bytes)
system.membus.snoops                                0                       # Total snoops (count)
system.membus.snoopTraffic                          0                       # Total snoop traffic (bytes)
system.membus.snoop_fanout::samples             13344                       # Request fanout histogram
system.membus.snoop_fanout::mean                    0                       # Request fanout histogram
system.membus.snoop_fanout::stdev                   0                       # Request fanout histogram
system.membus.snoop_fanout::underflows              0      0.00%      0.00% # Request fanout histogram
system.membus.snoop_fanout::0                   13344    100.00%    100.00% # Request fanout histogram
system.membus.snoop_fanout::1                       0      0.00%    100.00% # Request fanout histogram
system.membus.snoop_fanout::overflows               0      0.00%    100.00% # Request fanout histogram
system.membus.snoop_fanout::min_value               0                       # Request fanout histogram
system.membus.snoop_fanout::max_value               0                       # Request fanout histogram
system.membus.snoop_fanout::total               13344                       # Request fanout histogram
system.membus.reqLayer2.occupancy            11147306                       # Layer occupancy (ticks)
system.membus.reqLayer2.utilization               1.0                       # Layer utilization (%)
system.membus.respLayer0.occupancy           28957894                       # Layer occupancy (ticks)
system.membus.respLayer0.utilization              2.7                       # Layer utilization (%)
system.l2bus.pwrStateResidencyTicks::UNDEFINED   1090806800                       # Cumulative time (in ticks) in various power states
system.l2bus.trans_dist::ReadResp               17265                       # Transaction distribution
system.l2bus.trans_dist::WritebackDirty          4060                       # Transaction distribution
system.l2bus.trans_dist::CleanEvict             23308                       # Transaction distribution
system.l2bus.trans_dist::HardPFReq                907                       # Transaction distribution
system.l2bus.trans_dist::ReadExReq               2081                       # Transaction distribution
system.l2bus.trans_dist::ReadExResp              2081                       # Transaction distribution
system.l2bus.trans_dist::ReadSharedReq          17265                       # Transaction distribution
system.l2bus.pkt_count_system.cpu.icache.mem_side::system.l2cache.cpu_side         7780                       # Packet count per connected master and slave (bytes)
system.l2bus.pkt_count_system.cpu.dcache.mem_side::system.l2cache.cpu_side        48977                       # Packet count per connected master and slave (bytes)
system.l2bus.pkt_count::total                   56757                       # Packet count per connected master and slave (bytes)
system.l2bus.pkt_size_system.cpu.icache.mem_side::system.l2cache.cpu_side       171392                       # Cumulative packet size per connected master and slave (bytes)
system.l2bus.pkt_size_system.cpu.dcache.mem_side::system.l2cache.cpu_side      1242624                       # Cumulative packet size per connected master and slave (bytes)
system.l2bus.pkt_size::total                  1414016                       # Cumulative packet size per connected master and slave (bytes)
system.l2bus.snoops                             10210                       # Total snoops (count)
system.l2bus.snoopTraffic                       83968                       # Total snoop traffic (bytes)
system.l2bus.snoop_fanout::samples              29555                       # Request fanout histogram
system.l2bus.snoop_fanout::mean              0.014752                       # Request fanout histogram
system.l2bus.snoop_fanout::stdev             0.120561                       # Request fanout histogram
system.l2bus.snoop_fanout::underflows               0      0.00%      0.00% # Request fanout histogram
system.l2bus.snoop_fanout::0                    29119     98.52%     98.52% # Request fanout histogram
system.l2bus.snoop_fanout::1                      436      1.48%    100.00% # Request fanout histogram
system.l2bus.snoop_fanout::2                        0      0.00%    100.00% # Request fanout histogram
system.l2bus.snoop_fanout::overflows                0      0.00%    100.00% # Request fanout histogram
system.l2bus.snoop_fanout::min_value                0                       # Request fanout histogram
system.l2bus.snoop_fanout::max_value                1                       # Request fanout histogram
system.l2bus.snoop_fanout::total                29555                       # Request fanout histogram
system.l2bus.respLayer1.occupancy            20000799                       # Layer occupancy (ticks)
system.l2bus.respLayer1.utilization               1.8                       # Layer utilization (%)
system.l2bus.reqLayer0.occupancy             18524869                       # Layer occupancy (ticks)
system.l2bus.reqLayer0.utilization                1.7                       # Layer utilization (%)
system.l2bus.respLayer0.occupancy             3214800                       # Layer occupancy (ticks)
system.l2bus.respLayer0.utilization               0.3                       # Layer utilization (%)
system.clk_domain.clock                           400                       # Clock period in ticks
system.clk_domain.voltage_domain.voltage            1                       # Voltage in Volts
system.cpu.pwrStateResidencyTicks::ON      1090806800                       # Cumulative time (in ticks) in various power states
system.cpu.icache.pwrStateResidencyTicks::UNDEFINED   1090806800                       # Cumulative time (in ticks) in various power states
system.cpu.icache.demand_hits::.cpu.inst       236101                       # number of demand (read+write) hits
system.cpu.icache.demand_hits::total           236101                       # number of demand (read+write) hits
system.cpu.icache.overall_hits::.cpu.inst       236101                       # number of overall hits
system.cpu.icache.overall_hits::total          236101                       # number of overall hits
system.cpu.icache.demand_misses::.cpu.inst         3344                       # number of demand (read+write) misses
system.cpu.icache.demand_misses::total           3344                       # number of demand (read+write) misses
system.cpu.icache.overall_misses::.cpu.inst         3344                       # number of overall misses
system.cpu.icache.overall_misses::total          3344                       # number of overall misses
system.cpu.icache.demand_miss_latency::.cpu.inst    166413200                       # number of demand (read+write) miss cycles
system.cpu.icache.demand_miss_latency::total    166413200                       # number of demand (read+write) miss cycles
system.cpu.icache.overall_miss_latency::.cpu.inst    166413200                       # number of overall miss cycles
system.cpu.icache.overall_miss_latency::total    166413200                       # number of overall miss cycles
system.cpu.icache.demand_accesses::.cpu.inst       239445                       # number of demand (read+write) accesses
system.cpu.icache.demand_accesses::total       239445                       # number of demand (read+write) accesses
system.cpu.icache.overall_accesses::.cpu.inst       239445                       # number of overall (read+write) accesses
system.cpu.icache.overall_accesses::total       239445                       # number of overall (read+write) accesses
system.cpu.icache.demand_miss_rate::.cpu.inst     0.013966                       # miss rate for demand accesses
system.cpu.icache.demand_miss_rate::total     0.013966                       # miss rate for demand accesses
system.cpu.icache.overall_miss_rate::.cpu.inst     0.013966                       # miss rate for overall accesses
system.cpu.icache.overall_miss_rate::total     0.013966                       # miss rate for overall accesses
system.cpu.icache.demand_avg_miss_latency::.cpu.inst 49764.712919                       # average overall miss latency
system.cpu.icache.demand_avg_miss_latency::total 49764.712919                       # average overall miss latency
system.cpu.icache.overall_avg_miss_latency::.cpu.inst 49764.712919                       # average overall miss latency
system.cpu.icache.overall_avg_miss_latency::total 49764.712919                       # average overall miss latency
system.cpu.icache.blocked_cycles::no_mshrs          127                       # number of cycles access was blocked
system.cpu.icache.blocked_cycles::no_targets            0                       # number of cycles access was blocked
system.cpu.icache.blocked::no_mshrs                 3                       # number of cycles access was blocked
system.cpu.icache.blocked::no_targets               0                       # number of cycles access was blocked
system.cpu.icache.avg_blocked_cycles::no_mshrs    42.333333                       # average number of cycles each access was blocked
system.cpu.icache.avg_blocked_cycles::no_targets          nan                       # average number of cycles each access was blocked
system.cpu.icache.demand_mshr_hits::.cpu.inst          665                       # number of demand (read+write) MSHR hits
system.cpu.icache.demand_mshr_hits::total          665                       # number of demand (read+write) MSHR hits
system.cpu.icache.overall_mshr_hits::.cpu.inst          665                       # number of overall MSHR hits
system.cpu.icache.overall_mshr_hits::total          665                       # number of overall MSHR hits
system.cpu.icache.demand_mshr_misses::.cpu.inst         2679                       # number of demand (read+write) MSHR misses
system.cpu.icache.demand_mshr_misses::total         2679                       # number of demand (read+write) MSHR misses
system.cpu.icache.overall_mshr_misses::.cpu.inst         2679                       # number of overall MSHR misses
system.cpu.icache.overall_mshr_misses::total         2679                       # number of overall MSHR misses
system.cpu.icache.demand_mshr_miss_latency::.cpu.inst    133656000                       # number of demand (read+write) MSHR miss cycles
system.cpu.icache.demand_mshr_miss_latency::total    133656000                       # number of demand (read+write) MSHR miss cycles
system.cpu.icache.overall_mshr_miss_latency::.cpu.inst    133656000                       # number of overall MSHR miss cycles
system.cpu.icache.overall_mshr_miss_latency::total    133656000                       # number of overall MSHR miss cycles
system.cpu.icache.demand_mshr_miss_rate::.cpu.inst     0.011188                       # mshr miss rate for demand accesses
system.cpu.icache.demand_mshr_miss_rate::total     0.011188                       # mshr miss rate for demand accesses
system.cpu.icache.overall_mshr_miss_rate::.cpu.inst     0.011188                       # mshr miss rate for overall accesses
system.cpu.icache.overall_mshr_miss_rate::total     0.011188                       # mshr miss rate for overall accesses
system.cpu.icache.demand_avg_mshr_miss_latency::.cpu.inst 49890.257559                       # average overall mshr miss latency
system.cpu.icache.demand_avg_mshr_miss_latency::total 49890.257559                       # average overall mshr miss latency
system.cpu.icache.overall_avg_mshr_miss_latency::.cpu.inst 49890.257559                       # average overall mshr miss latency
system.cpu.icache.overall_avg_mshr_miss_latency::total 49890.257559                       # average overall mshr miss latency
system.cpu.icache.replacements                   2423                       # number of replacements
system.cpu.icache.ReadReq_hits::.cpu.inst       236101                       # number of ReadReq hits
system.cpu.icache.ReadReq_hits::total          236101                       # number of ReadReq hits
system.cpu.icache.ReadReq_misses::.cpu.inst         3344                       # number of ReadReq misses
system.cpu.icache.ReadReq_misses::total          3344                       # number of ReadReq misses
system.cpu.icache.ReadReq_miss_latency::.cpu.inst    166413200                       # number of ReadReq miss cycles
system.cpu.icache.ReadReq_miss_latency::total    166413200                       # number of ReadReq miss cycles
system.cpu.icache.ReadReq_accesses::.cpu.inst       239445                       # number of ReadReq accesses(hits+misses)
system.cpu.icache.ReadReq_accesses::total       239445                       # number of ReadReq accesses(hits+misses)
system.cpu.icache.ReadReq_miss_rate::.cpu.inst     0.013966                       # miss rate for ReadReq accesses
system.cpu.icache.ReadReq_miss_rate::total     0.013966                       # miss rate for ReadReq accesses
system.cpu.icache.ReadReq_avg_miss_latency::.cpu.inst 49764.712919                       # average ReadReq miss latency
system.cpu.icache.ReadReq_avg_miss_latency::total 49764.712919                       # average ReadReq miss latency
system.cpu.icache.ReadReq_mshr_hits::.cpu.inst          665                       # number of ReadReq MSHR hits
system.cpu.icache.ReadReq_mshr_hits::total          665                       # number of ReadReq MSHR hits
system.cpu.icache.ReadReq_mshr_misses::.cpu.inst         2679                       # number of ReadReq MSHR misses
system.cpu.icache.ReadReq_mshr_misses::total         2679                       # number of ReadReq MSHR misses
system.cpu.icache.ReadReq_mshr_miss_latency::.cpu.inst    133656000                       # number of ReadReq MSHR miss cycles
system.cpu.icache.ReadReq_mshr_miss_latency::total    133656000                       # number of ReadReq MSHR miss cycles
system.cpu.icache.ReadReq_mshr_miss_rate::.cpu.inst     0.011188                       # mshr miss rate for ReadReq accesses
system.cpu.icache.ReadReq_mshr_miss_rate::total     0.011188                       # mshr miss rate for ReadReq accesses
system.cpu.icache.ReadReq_avg_mshr_miss_latency::.cpu.inst 49890.257559                       # average ReadReq mshr miss latency
system.cpu.icache.ReadReq_avg_mshr_miss_latency::total 49890.257559                       # average ReadReq mshr miss latency
system.cpu.icache.prefetcher.pwrStateResidencyTicks::UNDEFINED   1090806800                       # Cumulative time (in ticks) in various power states
system.cpu.icache.tags.pwrStateResidencyTicks::UNDEFINED   1090806800                       # Cumulative time (in ticks) in various power states
system.cpu.icache.tags.tagsinuse           253.481093                       # Cycle average of tags in use
system.cpu.icache.tags.total_refs              207944                       # Total number of references to valid blocks.
system.cpu.icache.tags.sampled_refs              2423                       # Sample count of references to valid blocks.
system.cpu.icache.tags.avg_refs             85.820883                       # Average number of references to valid blocks.
system.cpu.icache.tags.warmup_cycle             66400                       # Cycle when the warmup percentage was hit.
system.cpu.icache.tags.occ_blocks::.cpu.inst   253.481093                       # Average occupied blocks per requestor
system.cpu.icache.tags.occ_percent::.cpu.inst     0.990161                       # Average percentage of cache occupancy
system.cpu.icache.tags.occ_percent::total     0.990161                       # Average percentage of cache occupancy
system.cpu.icache.tags.occ_task_id_blocks::1024          256                       # Occupied blocks per task id
system.cpu.icache.tags.age_task_id_blocks_1024::0           87                       # Occupied blocks per task id
system.cpu.icache.tags.age_task_id_blocks_1024::1          144                       # Occupied blocks per task id
system.cpu.icache.tags.age_task_id_blocks_1024::2           20                       # Occupied blocks per task id
system.cpu.icache.tags.age_task_id_blocks_1024::3            5                       # Occupied blocks per task id
system.cpu.icache.tags.occ_task_id_percent::1024            1                       # Percentage of cache occupancy per task id
system.cpu.icache.tags.tag_accesses            481569                       # Number of tag accesses
system.cpu.icache.tags.data_accesses           481569                       # Number of data accesses
system.cpu.dtb.walker.pwrStateResidencyTicks::UNDEFINED   1090806800                       # Cumulative time (in ticks) in various power states
system.cpu.interrupts.clk_domain.clock           6400                       # Clock period in ticks
system.cpu.itb.walker.pwrStateResidencyTicks::UNDEFINED   1090806800                       # Cumulative time (in ticks) in various power states
system.cpu.dcache.pwrStateResidencyTicks::UNDEFINED   1090806800                       # Cumulative time (in ticks) in various power states
system.cpu.dcache.demand_hits::.cpu.data       666288                       # number of demand (read+write) hits
system.cpu.dcache.demand_hits::total           666288                       # number of demand (read+write) hits
system.cpu.dcache.overall_hits::.cpu.data       666288                       # number of overall hits
system.cpu.dcache.overall_hits::total          666288                       # number of overall hits
system.cpu.dcache.demand_misses::.cpu.data        34716                       # number of demand (read+write) misses
system.cpu.dcache.demand_misses::total          34716                       # number of demand (read+write) misses
system.cpu.dcache.overall_misses::.cpu.data        34716                       # number of overall misses
system.cpu.dcache.overall_misses::total         34716                       # number of overall misses
system.cpu.dcache.demand_miss_latency::.cpu.data   1702727200                       # number of demand (read+write) miss cycles
system.cpu.dcache.demand_miss_latency::total   1702727200                       # number of demand (read+write) miss cycles
system.cpu.dcache.overall_miss_latency::.cpu.data   1702727200                       # number of overall miss cycles
system.cpu.dcache.overall_miss_latency::total   1702727200                       # number of overall miss cycles
system.cpu.dcache.demand_accesses::.cpu.data       701004                       # number of demand (read+write) accesses
system.cpu.dcache.demand_accesses::total       701004                       # number of demand (read+write) accesses
system.cpu.dcache.overall_accesses::.cpu.data       701004                       # number of overall (read+write) accesses
system.cpu.dcache.overall_accesses::total       701004                       # number of overall (read+write) accesses
system.cpu.dcache.demand_miss_rate::.cpu.data     0.049523                       # miss rate for demand accesses
system.cpu.dcache.demand_miss_rate::total     0.049523                       # miss rate for demand accesses
system.cpu.dcache.overall_miss_rate::.cpu.data     0.049523                       # miss rate for overall accesses
system.cpu.dcache.overall_miss_rate::total     0.049523                       # miss rate for overall accesses
system.cpu.dcache.demand_avg_miss_latency::.cpu.data 49047.332642                       # average overall miss latency
system.cpu.dcache.demand_avg_miss_latency::total 49047.332642                       # average overall miss latency
system.cpu.dcache.overall_avg_miss_latency::.cpu.data 49047.332642                       # average overall miss latency
system.cpu.dcache.overall_avg_miss_latency::total 49047.332642                       # average overall miss latency
system.cpu.dcache.blocked_cycles::no_mshrs        30084                       # number of cycles access was blocked
system.cpu.dcache.blocked_cycles::no_targets          442                       # number of cycles access was blocked
system.cpu.dcache.blocked::no_mshrs               732                       # number of cycles access was blocked
system.cpu.dcache.blocked::no_targets               4                       # number of cycles access was blocked
system.cpu.dcache.avg_blocked_cycles::no_mshrs    41.098361                       # average number of cycles each access was blocked
system.cpu.dcache.avg_blocked_cycles::no_targets   110.500000                       # average number of cycles each access was blocked
system.cpu.dcache.unused_prefetches              1644                       # number of HardPF blocks evicted w/o reference
system.cpu.dcache.writebacks::.writebacks         2749                       # number of writebacks
system.cpu.dcache.writebacks::total              2749                       # number of writebacks
system.cpu.dcache.demand_mshr_hits::.cpu.data        22182                       # number of demand (read+write) MSHR hits
system.cpu.dcache.demand_mshr_hits::total        22182                       # number of demand (read+write) MSHR hits
system.cpu.dcache.overall_mshr_hits::.cpu.data        22182                       # number of overall MSHR hits
system.cpu.dcache.overall_mshr_hits::total        22182                       # number of overall MSHR hits
system.cpu.dcache.demand_mshr_misses::.cpu.data        12534                       # number of demand (read+write) MSHR misses
system.cpu.dcache.demand_mshr_misses::total        12534                       # number of demand (read+write) MSHR misses
system.cpu.dcache.overall_mshr_misses::.cpu.data        12534                       # number of overall MSHR misses
system.cpu.dcache.overall_mshr_misses::.cpu.dcache.prefetcher         4133                       # number of overall MSHR misses
system.cpu.dcache.overall_mshr_misses::total        16667                       # number of overall MSHR misses
system.cpu.dcache.demand_mshr_miss_latency::.cpu.data    581180800                       # number of demand (read+write) MSHR miss cycles
system.cpu.dcache.demand_mshr_miss_latency::total    581180800                       # number of demand (read+write) MSHR miss cycles
system.cpu.dcache.overall_mshr_miss_latency::.cpu.data    581180800                       # number of overall MSHR miss cycles
system.cpu.dcache.overall_mshr_miss_latency::.cpu.dcache.prefetcher    242417600                       # number of overall MSHR miss cycles
system.cpu.dcache.overall_mshr_miss_latency::total    823598400                       # number of overall MSHR miss cycles
system.cpu.dcache.demand_mshr_miss_rate::.cpu.data     0.017880                       # mshr miss rate for demand accesses
system.cpu.dcache.demand_mshr_miss_rate::total     0.017880                       # mshr miss rate for demand accesses
system.cpu.dcache.overall_mshr_miss_rate::.cpu.data     0.017880                       # mshr miss rate for overall accesses
system.cpu.dcache.overall_mshr_miss_rate::.cpu.dcache.prefetcher          inf                       # mshr miss rate for overall accesses
system.cpu.dcache.overall_mshr_miss_rate::total     0.023776                       # mshr miss rate for overall accesses
system.cpu.dcache.demand_avg_mshr_miss_latency::.cpu.data 46368.342109                       # average overall mshr miss latency
system.cpu.dcache.demand_avg_mshr_miss_latency::total 46368.342109                       # average overall mshr miss latency
system.cpu.dcache.overall_avg_mshr_miss_latency::.cpu.data 46368.342109                       # average overall mshr miss latency
system.cpu.dcache.overall_avg_mshr_miss_latency::.cpu.dcache.prefetcher 58654.149528                       # average overall mshr miss latency
system.cpu.dcache.overall_avg_mshr_miss_latency::total 49414.915702                       # average overall mshr miss latency
system.cpu.dcache.replacements                  15643                       # number of replacements
system.cpu.dcache.ReadReq_hits::.cpu.data       497341                       # number of ReadReq hits
system.cpu.dcache.ReadReq_hits::total          497341                       # number of ReadReq hits
system.cpu.dcache.ReadReq_misses::.cpu.data        32606                       # number of ReadReq misses
system.cpu.dcache.ReadReq_misses::total         32606                       # number of ReadReq misses
system.cpu.dcache.ReadReq_miss_latency::.cpu.data   1598192000                       # number of ReadReq miss cycles
system.cpu.dcache.ReadReq_miss_latency::total   1598192000                       # number of ReadReq miss cycles
system.cpu.dcache.ReadReq_accesses::.cpu.data       529947                       # number of ReadReq accesses(hits+misses)
system.cpu.dcache.ReadReq_accesses::total       529947                       # number of ReadReq accesses(hits+misses)
system.cpu.dcache.ReadReq_miss_rate::.cpu.data     0.061527                       # miss rate for ReadReq accesses
system.cpu.dcache.ReadReq_miss_rate::total     0.061527                       # miss rate for ReadReq accesses
system.cpu.dcache.ReadReq_avg_miss_latency::.cpu.data 49015.273263                       # average ReadReq miss latency
system.cpu.dcache.ReadReq_avg_miss_latency::total 49015.273263                       # average ReadReq miss latency
system.cpu.dcache.ReadReq_mshr_hits::.cpu.data        22153                       # number of ReadReq MSHR hits
system.cpu.dcache.ReadReq_mshr_hits::total        22153                       # number of ReadReq MSHR hits
system.cpu.dcache.ReadReq_mshr_misses::.cpu.data        10453                       # number of ReadReq MSHR misses
system.cpu.dcache.ReadReq_mshr_misses::total        10453                       # number of ReadReq MSHR misses
system.cpu.dcache.ReadReq_mshr_miss_latency::.cpu.data    479541200                       # number of ReadReq MSHR miss cycles
system.cpu.dcache.ReadReq_mshr_miss_latency::total    479541200                       # number of ReadReq MSHR miss cycles
system.cpu.dcache.ReadReq_mshr_miss_rate::.cpu.data     0.019725                       # mshr miss rate for ReadReq accesses
system.cpu.dcache.ReadReq_mshr_miss_rate::total     0.019725                       # mshr miss rate for ReadReq accesses
system.cpu.dcache.ReadReq_avg_mshr_miss_latency::.cpu.data 45875.939922                       # average ReadReq mshr miss latency
system.cpu.dcache.ReadReq_avg_mshr_miss_latency::total 45875.939922                       # average ReadReq mshr miss latency
system.cpu.dcache.WriteReq_hits::.cpu.data       168947                       # number of WriteReq hits
system.cpu.dcache.WriteReq_hits::total         168947                       # number of WriteReq hits
system.cpu.dcache.WriteReq_misses::.cpu.data         2110                       # number of WriteReq misses
system.cpu.dcache.WriteReq_misses::total         2110                       # number of WriteReq misses
system.cpu.dcache.WriteReq_miss_latency::.cpu.data    104535200                       # number of WriteReq miss cycles
system.cpu.dcache.WriteReq_miss_latency::total    104535200                       # number of WriteReq miss cycles
system.cpu.dcache.WriteReq_accesses::.cpu.data       171057                       # number of WriteReq accesses(hits+misses)
system.cpu.dcache.WriteReq_accesses::total       171057                       # number of WriteReq accesses(hits+misses)
system.cpu.dcache.WriteReq_miss_rate::.cpu.data     0.012335                       # miss rate for WriteReq accesses
system.cpu.dcache.WriteReq_miss_rate::total     0.012335                       # miss rate for WriteReq accesses
system.cpu.dcache.WriteReq_avg_miss_latency::.cpu.data 49542.748815                       # average WriteReq miss latency
system.cpu.dcache.WriteReq_avg_miss_latency::total 49542.748815                       # average WriteReq miss latency
system.cpu.dcache.WriteReq_mshr_hits::.cpu.data           29                       # number of WriteReq MSHR hits
system.cpu.dcache.WriteReq_mshr_hits::total           29                       # number of WriteReq MSHR hits
system.cpu.dcache.WriteReq_mshr_misses::.cpu.data         2081                       # number of WriteReq MSHR misses
system.cpu.dcache.WriteReq_mshr_misses::total         2081                       # number of WriteReq MSHR misses
system.cpu.dcache.WriteReq_mshr_miss_latency::.cpu.data    101639600                       # number of WriteReq MSHR miss cycles
[...]
system.l2cache.demand_mshr_miss_rate::.cpu.data     0.627907                       # mshr miss rate for demand accesses
system.l2cache.demand_mshr_miss_rate::.cpu.dcache.prefetcher     0.711538                       # mshr miss rate for demand accesses
system.l2cache.demand_mshr_miss_rate::total     0.637255                       # mshr miss rate for demand accesses
system.l2cache.overall_mshr_miss_rate::.cpu.inst     0.636833                       # mshr miss rate for overall accesses
system.l2cache.overall_mshr_miss_rate::.cpu.data     0.627907                       # mshr miss rate for overall accesses
system.l2cache.overall_mshr_miss_rate::.cpu.dcache.prefetcher     0.711538                       # mshr miss rate for overall accesses
system.l2cache.overall_mshr_miss_rate::.l2cache.prefetcher          inf                       # mshr miss rate for overall accesses
system.l2cache.overall_mshr_miss_rate::total     0.640196                       # mshr miss rate for overall accesses
system.l2cache.demand_avg_mshr_miss_latency::.cpu.inst 58825.945946                       # average overall mshr miss latency
system.l2cache.demand_avg_mshr_miss_latency::.cpu.data 59833.744856                       # average overall mshr miss latency
system.l2cache.demand_avg_mshr_miss_latency::.cpu.dcache.prefetcher 62485.486486                       # average overall mshr miss latency
system.l2cache.demand_avg_mshr_miss_latency::total 59411.020000                       # average overall mshr miss latency
system.l2cache.overall_avg_mshr_miss_latency::.cpu.inst 58825.945946                       # average overall mshr miss latency
system.l2cache.overall_avg_mshr_miss_latency::.cpu.data 59833.744856                       # average overall mshr miss latency
system.l2cache.overall_avg_mshr_miss_latency::.cpu.dcache.prefetcher 62485.486486                       # average overall mshr miss latency
system.l2cache.overall_avg_mshr_miss_latency::.l2cache.prefetcher        59732                       # average overall mshr miss latency
system.l2cache.overall_avg_mshr_miss_latency::total 59412.494640                       # average overall mshr miss latency
system.l2cache.replacements                       662                       # number of replacements
system.l2cache.WritebackDirty_hits::.writebacks          142                       # number of WritebackDirty hits
system.l2cache.WritebackDirty_hits::total          142                       # number of WritebackDirty hits
system.l2cache.WritebackDirty_accesses::.writebacks          142                       # number of WritebackDirty accesses(hits+misses)
system.l2cache.WritebackDirty_accesses::total          142                       # number of WritebackDirty accesses(hits+misses)
system.l2cache.CleanEvict_mshr_misses::.writebacks           15                       # number of CleanEvict MSHR misses
system.l2cache.CleanEvict_mshr_misses::total           15                       # number of CleanEvict MSHR misses
system.l2cache.CleanEvict_mshr_miss_rate::.writebacks          inf                       # mshr miss rate for CleanEvict accesses
system.l2cache.CleanEvict_mshr_miss_rate::total          inf                       # mshr miss rate for CleanEvict accesses
system.l2cache.HardPFReq_mshr_misses::.l2cache.prefetcher            3                       # number of HardPFReq MSHR misses
system.l2cache.HardPFReq_mshr_misses::total            3                       # number of HardPFReq MSHR misses
system.l2cache.HardPFReq_mshr_miss_latency::.l2cache.prefetcher       179196                       # number of HardPFReq MSHR miss cycles
system.l2cache.HardPFReq_mshr_miss_latency::total       179196                       # number of HardPFReq MSHR miss cycles
system.l2cache.HardPFReq_mshr_miss_rate::.l2cache.prefetcher          inf                       # mshr miss rate for HardPFReq accesses
system.l2cache.HardPFReq_mshr_miss_rate::total          inf                       # mshr miss rate for HardPFReq accesses
system.l2cache.HardPFReq_avg_mshr_miss_latency::.l2cache.prefetcher        59732                       # average HardPFReq mshr miss latency
system.l2cache.HardPFReq_avg_mshr_miss_latency::total        59732                       # average HardPFReq mshr miss latency
system.l2cache.ReadExReq_hits::.cpu.data            5                       # number of ReadExReq hits
system.l2cache.ReadExReq_hits::total                5                       # number of ReadExReq hits
system.l2cache.ReadExReq_misses::.cpu.data          102                       # number of ReadExReq misses
system.l2cache.ReadExReq_misses::total            102                       # number of ReadExReq misses
system.l2cache.ReadExReq_miss_latency::.cpu.data      7052800                       # number of ReadExReq miss cycles
system.l2cache.ReadExReq_miss_latency::total      7052800                       # number of ReadExReq miss cycles
system.l2cache.ReadExReq_accesses::.cpu.data          107                       # number of ReadExReq accesses(hits+misses)
system.l2cache.ReadExReq_accesses::total          107                       # number of ReadExReq accesses(hits+misses)
system.l2cache.ReadExReq_miss_rate::.cpu.data     0.953271                       # miss rate for ReadExReq accesses
system.l2cache.ReadExReq_miss_rate::total     0.953271                       # miss rate for ReadExReq accesses
system.l2cache.ReadExReq_avg_miss_latency::.cpu.data 69145.098039                       # average ReadExReq miss latency
system.l2cache.ReadExReq_avg_miss_latency::total 69145.098039                       # average ReadExReq miss latency
system.l2cache.ReadExReq_mshr_misses::.cpu.data          102                       # number of ReadExReq MSHR misses
system.l2cache.ReadExReq_mshr_misses::total          102                       # number of ReadExReq MSHR misses
system.l2cache.ReadExReq_mshr_miss_latency::.cpu.data      6236800                       # number of ReadExReq MSHR miss cycles
system.l2cache.ReadExReq_mshr_miss_latency::total      6236800                       # number of ReadExReq MSHR miss cycles
system.l2cache.ReadExReq_mshr_miss_rate::.cpu.data     0.953271                       # mshr miss rate for ReadExReq accesses
system.l2cache.ReadExReq_mshr_miss_rate::total     0.953271                       # mshr miss rate for ReadExReq accesses
system.l2cache.ReadExReq_avg_mshr_miss_latency::.cpu.data 61145.098039                       # average ReadExReq mshr miss latency
system.l2cache.ReadExReq_avg_mshr_miss_latency::total 61145.098039                       # average ReadExReq mshr miss latency
system.l2cache.ReadSharedReq_hits::.cpu.inst          211                       # number of ReadSharedReq hits
system.l2cache.ReadSharedReq_hits::.cpu.data          138                       # number of ReadSharedReq hits
system.l2cache.ReadSharedReq_hits::.cpu.dcache.prefetcher           15                       # number of ReadSharedReq hits
system.l2cache.ReadSharedReq_hits::total          364                       # number of ReadSharedReq hits
system.l2cache.ReadSharedReq_misses::.cpu.inst          370                       # number of ReadSharedReq misses
system.l2cache.ReadSharedReq_misses::.cpu.data          142                       # number of ReadSharedReq misses
system.l2cache.ReadSharedReq_misses::.cpu.dcache.prefetcher           37                       # number of ReadSharedReq misses
system.l2cache.ReadSharedReq_misses::total          549                       # number of ReadSharedReq misses
system.l2cache.ReadSharedReq_miss_latency::.cpu.inst     24717600                       # number of ReadSharedReq miss cycles
system.l2cache.ReadSharedReq_miss_latency::.cpu.data      9487200                       # number of ReadSharedReq miss cycles
system.l2cache.ReadSharedReq_miss_latency::.cpu.dcache.prefetcher      2607963                       # number of ReadSharedReq miss cycles
system.l2cache.ReadSharedReq_miss_latency::total     36812763                       # number of ReadSharedReq miss cycles
system.l2cache.ReadSharedReq_accesses::.cpu.inst          581                       # number of ReadSharedReq accesses(hits+misses)
system.l2cache.ReadSharedReq_accesses::.cpu.data          280                       # number of ReadSharedReq accesses(hits+misses)
system.l2cache.ReadSharedReq_accesses::.cpu.dcache.prefetcher           52                       # number of ReadSharedReq accesses(hits+misses)
system.l2cache.ReadSharedReq_accesses::total          913                       # number of ReadSharedReq accesses(hits+misses)
system.l2cache.ReadSharedReq_miss_rate::.cpu.inst     0.636833                       # miss rate for ReadSharedReq accesses
system.l2cache.ReadSharedReq_miss_rate::.cpu.data     0.507143                       # miss rate for ReadSharedReq accesses
system.l2cache.ReadSharedReq_miss_rate::.cpu.dcache.prefetcher     0.711538                       # miss rate for ReadSharedReq accesses
system.l2cache.ReadSharedReq_miss_rate::total     0.601314                       # miss rate for ReadSharedReq accesses
system.l2cache.ReadSharedReq_avg_miss_latency::.cpu.inst 66804.324324                       # average ReadSharedReq miss latency
system.l2cache.ReadSharedReq_avg_miss_latency::.cpu.data 66811.267606                       # average ReadSharedReq miss latency
system.l2cache.ReadSharedReq_avg_miss_latency::.cpu.dcache.prefetcher 70485.486486                       # average ReadSharedReq miss latency
system.l2cache.ReadSharedReq_avg_miss_latency::total 67054.213115                       # average ReadSharedReq miss latency
system.l2cache.ReadSharedReq_mshr_hits::.cpu.data            1                       # number of ReadSharedReq MSHR hits
system.l2cache.ReadSharedReq_mshr_hits::total            1                       # number of ReadSharedReq MSHR hits
system.l2cache.ReadSharedReq_mshr_misses::.cpu.inst          370                       # number of ReadSharedReq MSHR misses
system.l2cache.ReadSharedReq_mshr_misses::.cpu.data          141                       # number of ReadSharedReq MSHR misses
system.l2cache.ReadSharedReq_mshr_misses::.cpu.dcache.prefetcher           37                       # number of ReadSharedReq MSHR misses
system.l2cache.ReadSharedReq_mshr_misses::total          548                       # number of ReadSharedReq MSHR misses
system.l2cache.ReadSharedReq_mshr_miss_latency::.cpu.inst     21765600                       # number of ReadSharedReq MSHR miss cycles
system.l2cache.ReadSharedReq_mshr_miss_latency::.cpu.data      8302800                       # number of ReadSharedReq MSHR miss cycles
system.l2cache.ReadSharedReq_mshr_miss_latency::.cpu.dcache.prefetcher      2311963                       # number of ReadSharedReq MSHR miss cycles
system.l2cache.ReadSharedReq_mshr_miss_latency::total     32380363                       # number of ReadSharedReq MSHR miss cycles
system.l2cache.ReadSharedReq_mshr_miss_rate::.cpu.inst     0.636833                       # mshr miss rate for ReadSharedReq accesses
system.l2cache.ReadSharedReq_mshr_miss_rate::.cpu.data     0.503571                       # mshr miss rate for ReadSharedReq accesses
system.l2cache.ReadSharedReq_mshr_miss_rate::.cpu.dcache.prefetcher     0.711538                       # mshr miss rate for ReadSharedReq accesses
system.l2cache.ReadSharedReq_mshr_miss_rate::total     0.600219                       # mshr miss rate for ReadSharedReq accesses
system.l2cache.ReadSharedReq_avg_mshr_miss_latency::.cpu.inst 58825.945946                       # average ReadSharedReq mshr miss latency
system.l2cache.ReadSharedReq_avg_mshr_miss_latency::.cpu.data 58885.106383                       # average ReadSharedReq mshr miss latency
system.l2cache.ReadSharedReq_avg_mshr_miss_latency::.cpu.dcache.prefetcher 62485.486486                       # average ReadSharedReq mshr miss latency
system.l2cache.ReadSharedReq_avg_mshr_miss_latency::total 59088.253650                       # average ReadSharedReq mshr miss latency
system.l2cache.prefetcher.pwrStateResidencyTicks::UNDEFINED    270970400                       # Cumulative time (in ticks) in various power states
system.l2cache.tags.pwrStateResidencyTicks::UNDEFINED    270970400                       # Cumulative time (in ticks) in various power states
system.l2cache.tags.tagsinuse                    4096                       # Cycle average of tags in use
system.l2cache.tags.total_refs                  14333                       # Total number of references to valid blocks.
system.l2cache.tags.sampled_refs                 4758                       # Sample count of references to valid blocks.
system.l2cache.tags.avg_refs                 3.012400                       # Average number of references to valid blocks.
system.l2cache.tags.warmup_cycle                    0                       # Cycle when the warmup percentage was hit.
system.l2cache.tags.occ_blocks::.writebacks    36.606602                       # Average occupied blocks per requestor
system.l2cache.tags.occ_blocks::.cpu.inst  1099.067547                       # Average occupied blocks per requestor
system.l2cache.tags.occ_blocks::.cpu.data  1909.863846                       # Average occupied blocks per requestor
system.l2cache.tags.occ_blocks::.cpu.dcache.prefetcher   913.568564                       # Average occupied blocks per requestor
system.l2cache.tags.occ_blocks::.l2cache.prefetcher   136.893441                       # Average occupied blocks per requestor
system.l2cache.tags.occ_percent::.writebacks     0.008937                       # Average percentage of cache occupancy
system.l2cache.tags.occ_percent::.cpu.inst     0.268327                       # Average percentage of cache occupancy
system.l2cache.tags.occ_percent::.cpu.data     0.466275                       # Average percentage of cache occupancy
system.l2cache.tags.occ_percent::.cpu.dcache.prefetcher     0.223039                       # Average percentage of cache occupancy
system.l2cache.tags.occ_percent::.l2cache.prefetcher     0.033421                       # Average percentage of cache occupancy
system.l2cache.tags.occ_percent::total              1                       # Average percentage of cache occupancy
system.l2cache.tags.occ_task_id_blocks::1022          966                       # Occupied blocks per task id
system.l2cache.tags.occ_task_id_blocks::1024         3130                       # Occupied blocks per task id
system.l2cache.tags.age_task_id_blocks_1022::0            6                       # Occupied blocks per task id
system.l2cache.tags.age_task_id_blocks_1022::1            2                       # Occupied blocks per task id
system.l2cache.tags.age_task_id_blocks_1022::2          938                       # Occupied blocks per task id
system.l2cache.tags.age_task_id_blocks_1022::3           20                       # Occupied blocks per task id
system.l2cache.tags.age_task_id_blocks_1024::0          166                       # Occupied blocks per task id
system.l2cache.tags.age_task_id_blocks_1024::1          108                       # Occupied blocks per task id
system.l2cache.tags.age_task_id_blocks_1024::2         2646                       # Occupied blocks per task id
system.l2cache.tags.age_task_id_blocks_1024::3          210                       # Occupied blocks per task id
system.l2cache.tags.occ_task_id_percent::1022     0.235840                       # Percentage of cache occupancy per task id
system.l2cache.tags.occ_task_id_percent::1024     0.764160                       # Percentage of cache occupancy per task id
system.l2cache.tags.tag_accesses                16958                       # Number of tag accesses
system.l2cache.tags.data_accesses               16958                       # Number of data accesses
system.mem_ctrl.pwrStateResidencyTicks::UNDEFINED    270970400                       # Cumulative time (in ticks) in various power states
system.mem_ctrl.bytes_read::.cpu.inst           23616                       # Number of bytes read from this memory
system.mem_ctrl.bytes_read::.cpu.data           15552                       # Number of bytes read from this memory
system.mem_ctrl.bytes_read::.cpu.dcache.prefetcher         2368                       # Number of bytes read from this memory
system.mem_ctrl.bytes_read::.l2cache.prefetcher          192                       # Number of bytes read from this memory
system.mem_ctrl.bytes_read::total               41728                       # Number of bytes read from this memory
system.mem_ctrl.bytes_inst_read::.cpu.inst        23616                       # Number of instructions bytes read from this memory
system.mem_ctrl.bytes_inst_read::total          23616                       # Number of instructions bytes read from this memory
system.mem_ctrl.bytes_written::.writebacks         3072                       # Number of bytes written to this memory
system.mem_ctrl.bytes_written::total             3072                       # Number of bytes written to this memory
system.mem_ctrl.num_reads::.cpu.inst              369                       # Number of read requests responded to by this memory
system.mem_ctrl.num_reads::.cpu.data              243                       # Number of read requests responded to by this memory
system.mem_ctrl.num_reads::.cpu.dcache.prefetcher           37                       # Number of read requests responded to by this memory
system.mem_ctrl.num_reads::.l2cache.prefetcher            3                       # Number of read requests responded to by this memory
system.mem_ctrl.num_reads::total                  652                       # Number of read requests responded to by this memory
system.mem_ctrl.num_writes::.writebacks            48                       # Number of write requests responded to by this memory
system.mem_ctrl.num_writes::total                  48                       # Number of write requests responded to by this memory
system.mem_ctrl.bw_read::.cpu.inst           87153431                       # Total read bandwidth from this memory (bytes/s)
system.mem_ctrl.bw_read::.cpu.data           57393723                       # Total read bandwidth from this memory (bytes/s)
system.mem_ctrl.bw_read::.cpu.dcache.prefetcher      8738962                       # Total read bandwidth from this memory (bytes/s)
system.mem_ctrl.bw_read::.l2cache.prefetcher       708564                       # Total read bandwidth from this memory (bytes/s)
system.mem_ctrl.bw_read::total              153994680                       # Total read bandwidth from this memory (bytes/s)
system.mem_ctrl.bw_inst_read::.cpu.inst      87153431                       # Instruction read bandwidth from this memory (bytes/s)
system.mem_ctrl.bw_inst_read::total          87153431                       # Instruction read bandwidth from this memory (bytes/s)
system.mem_ctrl.bw_write::.writebacks        11337032                       # Write bandwidth from this memory (bytes/s)
system.mem_ctrl.bw_write::total              11337032                       # Write bandwidth from this memory (bytes/s)
system.mem_ctrl.bw_total::.writebacks        11337032                       # Total bandwidth to/from this memory (bytes/s)
system.mem_ctrl.bw_total::.cpu.inst          87153431                       # Total bandwidth to/from this memory (bytes/s)
system.mem_ctrl.bw_total::.cpu.data          57393723                       # Total bandwidth to/from this memory (bytes/s)
system.mem_ctrl.bw_total::.cpu.dcache.prefetcher      8738962                       # Total bandwidth to/from this memory (bytes/s)
system.mem_ctrl.bw_total::.l2cache.prefetcher       708564                       # Total bandwidth to/from this memory (bytes/s)
system.mem_ctrl.bw_total::total             165331712                       # Total bandwidth to/from this memory (bytes/s)

---------- End Simulation Statistics   ----------
