
---------- Begin Simulation Statistics ----------
final_tick                                 1155010000                       # Number of ticks from beginning of simulation (restored from checkpoints and never reset)
host_inst_rate                                 152761                       # Simulator instruction rate (inst/s)
host_mem_usage                                4406856                       # Number of bytes of host memory used
host_op_rate                                   270749                       # Simulator op (including micro ops) rate (op/s)
host_seconds                                    14.85                       # Real time elapsed on the host
host_tick_rate                               77759384                       # Simulator tick rate (ticks/s)
sim_freq                                 1000000000000                       # Frequency of simulated ticks
sim_insts                                     2269050                       # Number of instructions simulated
sim_ops                                       4021610                       # Number of ops (including micro ops) simulated
sim_seconds                                  0.001155                       # Number of seconds simulated
sim_ticks                                  1155010000                       # Number of ticks simulated
system.cpu.branchPred.BTBCorrect                    0                       # Number of correct BTB predictions (this stat may not work properly.
system.cpu.branchPred.BTBHitPct              0.000000                       # BTB Hit Percentage
system.cpu.branchPred.BTBHits                       0                       # Number of BTB hits
system.cpu.branchPred.BTBLookups               471749                       # Number of BTB lookups
system.cpu.branchPred.RASInCorrect                 10                       # Number of incorrect RAS predictions.
system.cpu.branchPred.condIncorrect             24496                       # Number of conditional branches incorrect
system.cpu.branchPred.condPredicted            494911                       # Number of conditional branches predicted
system.cpu.branchPred.indirectHits             254548                       # Number of indirect target hits.
system.cpu.branchPred.indirectLookups          471749                       # Number of indirect predictor lookups.
system.cpu.branchPred.indirectMisses           217201                       # Number of indirect misses.
system.cpu.branchPred.lookups                  527779                       # Number of BP lookups
system.cpu.branchPred.usedRAS                   14686                       # Number of times the RAS was used to get a target.
system.cpu.branchPredindirectMispredicted        12306                       # Number of mispredicted indirect branches.
system.cpu.cc_regfile_reads                   2599605                       # number of cc regfile reads
system.cpu.cc_regfile_writes                  2049568                       # number of cc regfile writes
system.cpu.commit.amos                              0                       # Number of atomic instructions committed
system.cpu.commit.branchMispredicts             24611                       # The number of times a branch was mispredicted
system.cpu.commit.branches                     383903                       # Number of branches committed
system.cpu.commit.bw_lim_events                670855                       # number cycles where commit BW limit reached
system.cpu.commit.commitNonSpecStalls             760                       # The number of times commit has been forced to stall to communicate backwards
system.cpu.commit.commitSquashedInsts          887082                       # The number of squashed insts skipped by commit
system.cpu.commit.committedInsts              2269050                       # Number of instructions committed
system.cpu.commit.committedOps                4021610                       # Number of ops (including micro ops) committed
system.cpu.commit.committed_per_cycle::samples      2483191                       # Number of insts commited each cycle
system.cpu.commit.committed_per_cycle::mean     1.619533                       # Number of insts commited each cycle
system.cpu.commit.committed_per_cycle::stdev     1.732644                       # Number of insts commited each cycle
system.cpu.commit.committed_per_cycle::underflows            0      0.00%      0.00% # Number of insts commited each cycle
system.cpu.commit.committed_per_cycle::0      1170536     47.14%     47.14% # Number of insts commited each cycle
system.cpu.commit.committed_per_cycle::1       196986      7.93%     55.07% # Number of insts commited each cycle
system.cpu.commit.committed_per_cycle::2       193238      7.78%     62.85% # Number of insts commited each cycle
system.cpu.commit.committed_per_cycle::3       251576     10.13%     72.98% # Number of insts commited each cycle
system.cpu.commit.committed_per_cycle::4       670855     27.02%    100.00% # Number of insts commited each cycle
system.cpu.commit.committed_per_cycle::overflows            0      0.00%    100.00% # Number of insts commited each cycle
system.cpu.commit.committed_per_cycle::min_value            0                       # Number of insts commited each cycle
system.cpu.commit.committed_per_cycle::max_value            4                       # Number of insts commited each cycle
system.cpu.commit.committed_per_cycle::total      2483191                       # Number of insts commited each cycle
system.cpu.commit.fp_insts                     100153                       # Number of committed floating point instructions.
system.cpu.commit.function_calls                12819                       # Number of function calls committed.
system.cpu.commit.int_insts                   3945643                       # Number of committed integer instructions.
system.cpu.commit.loads                        546506                       # Number of loads committed
system.cpu.commit.membars                           1                       # Number of memory barriers committed
system.cpu.commit.op_class_0::No_OpClass        22615      0.56%      0.56% # Class of committed instruction
system.cpu.commit.op_class_0::IntAlu          3137800     78.02%     78.59% # Class of committed instruction
system.cpu.commit.op_class_0::IntMult            2424      0.06%     78.65% # Class of committed instruction
system.cpu.commit.op_class_0::IntDiv            38160      0.95%     79.59% # Class of committed instruction
system.cpu.commit.op_class_0::FloatAdd           3924      0.10%     79.69% # Class of committed instruction
system.cpu.commit.op_class_0::FloatCmp              0      0.00%     79.69% # Class of committed instruction
system.cpu.commit.op_class_0::FloatCvt           1248      0.03%     79.72% # Class of committed instruction
system.cpu.commit.op_class_0::FloatMult             0      0.00%     79.72% # Class of committed instruction
system.cpu.commit.op_class_0::FloatMultAcc            0      0.00%     79.72% # Class of committed instruction
system.cpu.commit.op_class_0::FloatDiv              0      0.00%     79.72% # Class of committed instruction
system.cpu.commit.op_class_0::FloatMisc             0      0.00%     79.72% # Class of committed instruction
system.cpu.commit.op_class_0::FloatSqrt             0      0.00%     79.72% # Class of committed instruction
system.cpu.commit.op_class_0::SimdAdd            6274      0.16%     79.88% # Class of committed instruction
system.cpu.commit.op_class_0::SimdAddAcc            0      0.00%     79.88% # Class of committed instruction
system.cpu.commit.op_class_0::SimdAlu           15441      0.38%     80.26% # Class of committed instruction
system.cpu.commit.op_class_0::SimdCmp               0      0.00%     80.26% # Class of committed instruction
system.cpu.commit.op_class_0::SimdCvt           16358      0.41%     80.67% # Class of committed instruction
system.cpu.commit.op_class_0::SimdMisc          15879      0.39%     81.07% # Class of committed instruction
system.cpu.commit.op_class_0::SimdMult              0      0.00%     81.07% # Class of committed instruction
system.cpu.commit.op_class_0::SimdMultAcc            0      0.00%     81.07% # Class of committed instruction
system.cpu.commit.op_class_0::SimdShift          1242      0.03%     81.10% # Class of committed instruction
system.cpu.commit.op_class_0::SimdShiftAcc            0      0.00%     81.10% # Class of committed instruction
system.cpu.commit.op_class_0::SimdDiv               0      0.00%     81.10% # Class of committed instruction
system.cpu.commit.op_class_0::SimdSqrt              0      0.00%     81.10% # Class of committed instruction
system.cpu.commit.op_class_0::SimdFloatAdd            0      0.00%     81.10% # Class of committed instruction
system.cpu.commit.op_class_0::SimdFloatAlu            0      0.00%     81.10% # Class of committed instruction
system.cpu.commit.op_class_0::SimdFloatCmp            0      0.00%     81.10% # Class of committed instruction
system.cpu.commit.op_class_0::SimdFloatCvt            0      0.00%     81.10% # Class of committed instruction
system.cpu.commit.op_class_0::SimdFloatDiv            0      0.00%     81.10% # Class of committed instruction
system.cpu.commit.op_class_0::SimdFloatMisc            0      0.00%     81.10% # Class of committed instruction
system.cpu.commit.op_class_0::SimdFloatMult            0      0.00%     81.10% # Class of committed instruction
system.cpu.commit.op_class_0::SimdFloatMultAcc            0      0.00%     81.10% # Class of committed instruction
system.cpu.commit.op_class_0::SimdFloatSqrt            0      0.00%     81.10% # Class of committed instruction
system.cpu.commit.op_class_0::SimdReduceAdd            0      0.00%     81.10% # Class of committed instruction
system.cpu.commit.op_class_0::SimdReduceAlu            0      0.00%     81.10% # Class of committed instruction
system.cpu.commit.op_class_0::SimdReduceCmp            0      0.00%     81.10% # Class of committed instruction
system.cpu.commit.op_class_0::SimdFloatReduceAdd            0      0.00%     81.10% # Class of committed instruction
system.cpu.commit.op_class_0::SimdFloatReduceCmp            0      0.00%     81.10% # Class of committed instruction
system.cpu.commit.op_class_0::SimdAes               0      0.00%     81.10% # Class of committed instruction
system.cpu.commit.op_class_0::SimdAesMix            0      0.00%     81.10% # Class of committed instruction
system.cpu.commit.op_class_0::SimdSha1Hash            0      0.00%     81.10% # Class of committed instruction
system.cpu.commit.op_class_0::SimdSha1Hash2            0      0.00%     81.10% # Class of committed instruction
system.cpu.commit.op_class_0::SimdSha256Hash            0      0.00%     81.10% # Class of committed instruction
system.cpu.commit.op_class_0::SimdSha256Hash2            0      0.00%     81.10% # Class of committed instruction
system.cpu.commit.op_class_0::SimdShaSigma2            0      0.00%     81.10% # Class of committed instruction
system.cpu.commit.op_class_0::SimdShaSigma3            0      0.00%     81.10% # Class of committed instruction
system.cpu.commit.op_class_0::SimdPredAlu            0      0.00%     81.10% # Class of committed instruction
system.cpu.commit.op_class_0::MemRead          524040     13.03%     94.13% # Class of committed instruction
system.cpu.commit.op_class_0::MemWrite         200384      4.98%     99.11% # Class of committed instruction
system.cpu.commit.op_class_0::FloatMemRead        22466      0.56%     99.67% # Class of committed instruction
system.cpu.commit.op_class_0::FloatMemWrite        13355      0.33%    100.00% # Class of committed instruction
system.cpu.commit.op_class_0::IprAccess             0      0.00%    100.00% # Class of committed instruction
system.cpu.commit.op_class_0::InstPrefetch            0      0.00%    100.00% # Class of committed instruction
system.cpu.commit.op_class_0::total           4021610                       # Class of committed instruction
system.cpu.commit.refs                         760245                       # Number of memory references committed
system.cpu.commit.swp_count                         0                       # Number of s/w prefetches committed
system.cpu.commit.vec_insts                         0                       # Number of committed Vector instructions.
system.cpu.committedInsts                     2269050                       # Number of Instructions Simulated
system.cpu.committedOps                       4021610                       # Number of Ops (including micro ops) Simulated
system.cpu.cpi                               1.272570                       # CPI: Cycles Per Instruction
system.cpu.cpi_total                         1.272570                       # CPI: Total CPI of All Threads
system.cpu.dcache.prefetcher.num_hwpf_issued         8207                       # number of hwpf issued
system.cpu.dcache.prefetcher.pfBufferHit        34625                       # number of redundant prefetches already in prefetch queue
system.cpu.dcache.prefetcher.pfIdentified        50364                       # number of prefetch candidates identified
system.cpu.dcache.prefetcher.pfInCache              0                       # number of redundant prefetches already in cache/mshr dropped
system.cpu.dcache.prefetcher.pfRemovedFull            0                       # number of prefetches dropped due to prefetch queue size
system.cpu.dcache.prefetcher.pfSpanPage          4532                       # number of prefetches that crossed the page
system.cpu.decode.BlockedCycles               1025608                       # Number of cycles decode is blocked
system.cpu.decode.DecodedInsts                5126623                       # Number of instructions handled by decode
system.cpu.decode.IdleCycles                   327611                       # Number of cycles decode is idle
system.cpu.decode.RunCycles                   1257820                       # Number of cycles decode is running
system.cpu.decode.SquashCycles                  24674                       # Number of cycles decode is squashing
system.cpu.decode.UnblockCycles                 89163                       # Number of cycles decode is unblocking
system.cpu.dtb.rdAccesses                      629568                       # TLB accesses on read requests
system.cpu.dtb.rdMisses                          1991                       # TLB misses on read requests
system.cpu.dtb.wrAccesses                      233542                       # TLB accesses on write requests
system.cpu.dtb.wrMisses                           165                       # TLB misses on write requests
system.cpu.fetch.Branches                      527779                       # Number of branches that fetch encountered
system.cpu.fetch.CacheLines                    268956                       # Number of cache lines fetched
system.cpu.fetch.Cycles                       2338602                       # Number of cycles fetch has run and was not squashing or blocked
system.cpu.fetch.IcacheSquashes                  4708                       # Number of outstanding Icache misses that were squashed
system.cpu.fetch.Insts                        3038521                       # Number of instructions fetch has processed
system.cpu.fetch.MiscStallCycles                  159                       # Number of cycles fetch has spent waiting on interrupts, or bad addresses, or out of MSHRs
system.cpu.fetch.PendingQuiesceStallCycles            8                       # Number of stall cycles due to pending quiesce instructions
system.cpu.fetch.PendingTrapStallCycles           779                       # Number of stall cycles due to pending traps
system.cpu.fetch.SquashCycles                   49348                       # Number of cycles fetch has spent squashing
system.cpu.fetch.branchRate                  0.182779                       # Number of branch fetches per cycle
system.cpu.fetch.icacheStallCycles             360654                       # Number of cycles fetch is stalled on an Icache miss
system.cpu.fetch.predictedBranches             269234                       # Number of branches that fetch has predicted taken
system.cpu.fetch.rate                        1.052292                       # Number of inst fetches per cycle
system.cpu.fetch.rateDist::samples            2724876                       # Number of instructions fetched each cycle (Total)
system.cpu.fetch.rateDist::mean              1.983179                       # Number of instructions fetched each cycle (Total)
system.cpu.fetch.rateDist::stdev             1.929328                       # Number of instructions fetched each cycle (Total)
system.cpu.fetch.rateDist::underflows               0      0.00%      0.00% # Number of instructions fetched each cycle (Total)
system.cpu.fetch.rateDist::0                  1259254     46.21%     46.21% # Number of instructions fetched each cycle (Total)
system.cpu.fetch.rateDist::1                    81477      2.99%     49.20% # Number of instructions fetched each cycle (Total)
system.cpu.fetch.rateDist::2                    65472      2.40%     51.61% # Number of instructions fetched each cycle (Total)
system.cpu.fetch.rateDist::3                    83197      3.05%     54.66% # Number of instructions fetched each cycle (Total)
system.cpu.fetch.rateDist::4                  1235476     45.34%    100.00% # Number of instructions fetched each cycle (Total)
system.cpu.fetch.rateDist::overflows                0      0.00%    100.00% # Number of instructions fetched each cycle (Total)
system.cpu.fetch.rateDist::min_value                0                       # Number of instructions fetched each cycle (Total)
system.cpu.fetch.rateDist::max_value                4                       # Number of instructions fetched each cycle (Total)
system.cpu.fetch.rateDist::total              2724876                       # Number of instructions fetched each cycle (Total)
system.cpu.fp_regfile_reads                    165289                       # number of floating regfile reads
system.cpu.fp_regfile_writes                    89789                       # number of floating regfile writes
system.cpu.fuPool.fu_ticks_busy::IntALU(0)    237726000                       # Total ticks fu was busy
system.cpu.fuPool.fu_ticks_busy::IntALU(1)    237726000                       # Total ticks fu was busy
system.cpu.fuPool.fu_ticks_busy::IntALU(2)    237726000                       # Total ticks fu was busy
system.cpu.fuPool.fu_ticks_busy::IntALU(3)    237726000                       # Total ticks fu was busy
system.cpu.fuPool.fu_ticks_busy::IntALU(4)    237726000                       # Total ticks fu was busy
system.cpu.fuPool.fu_ticks_busy::IntALU(5)    237726000                       # Total ticks fu was busy
system.cpu.fuPool.fu_ticks_busy::IntMultDiv(0)      8957200                       # Total ticks fu was busy
system.cpu.fuPool.fu_ticks_busy::IntMultDiv(1)      8957200                       # Total ticks fu was busy
system.cpu.fuPool.fu_ticks_busy::FP_ALU(0)       681200                       # Total ticks fu was busy
system.cpu.fuPool.fu_ticks_busy::FP_ALU(1)       680800                       # Total ticks fu was busy
system.cpu.fuPool.fu_ticks_busy::FP_ALU(2)       680800                       # Total ticks fu was busy
system.cpu.fuPool.fu_ticks_busy::FP_ALU(3)       680800                       # Total ticks fu was busy
system.cpu.fuPool.fu_ticks_busy::FP_MultDiv(0)            0                       # Total ticks fu was busy
system.cpu.fuPool.fu_ticks_busy::FP_MultDiv(1)            0                       # Total ticks fu was busy
system.cpu.fuPool.fu_ticks_busy::SIMD_Unit(0)      6177200                       # Total ticks fu was busy
system.cpu.fuPool.fu_ticks_busy::SIMD_Unit(1)      6336000                       # Total ticks fu was busy
system.cpu.fuPool.fu_ticks_busy::SIMD_Unit(2)      6531200                       # Total ticks fu was busy
system.cpu.fuPool.fu_ticks_busy::SIMD_Unit(3)      6227200                       # Total ticks fu was busy
system.cpu.fuPool.fu_ticks_busy::PredALU(0)            0                       # Total ticks fu was busy
system.cpu.fuPool.fu_ticks_busy::RdWrPort(0)     87808000                       # Total ticks fu was busy
system.cpu.fuPool.fu_ticks_busy::RdWrPort(1)     87670800                       # Total ticks fu was busy
system.cpu.fuPool.fu_ticks_busy::RdWrPort(2)     87834000                       # Total ticks fu was busy
system.cpu.fuPool.fu_ticks_busy::RdWrPort(3)     87750000                       # Total ticks fu was busy
system.cpu.fuPool.fu_ticks_busy::IprPort(0)            0                       # Total ticks fu was busy
system.cpu.fuPool.fu_ticks_busy::total     1823328400                       # Total ticks fu was busy
system.cpu.icache.prefetcher.num_hwpf_issued            0                       # number of hwpf issued
system.cpu.icache.prefetcher.pfBufferHit            0                       # number of redundant prefetches already in prefetch queue
system.cpu.icache.prefetcher.pfIdentified            0                       # number of prefetch candidates identified
system.cpu.icache.prefetcher.pfInCache              0                       # number of redundant prefetches already in cache/mshr dropped
system.cpu.icache.prefetcher.pfRemovedFull            0                       # number of prefetches dropped due to prefetch queue size
system.cpu.icache.prefetcher.pfSpanPage             0                       # number of prefetches that crossed the page
system.cpu.idleCycles                          162650                       # Total number of cycles that the CPU has spent unscheduled due to idling
system.cpu.iew.branchMispredicts                29093                       # Number of branch mispredicts detected at execute
system.cpu.iew.exec_branches                   414015                       # Number of branches executed
system.cpu.iew.exec_nop                             0                       # number of nop insts executed
system.cpu.iew.exec_rate                     1.576554                       # Inst execution rate
system.cpu.iew.exec_refs                       864695                       # number of memory reference insts executed
system.cpu.iew.exec_stores                     233529                       # Number of stores executed
system.cpu.iew.exec_swp                             0                       # number of swp insts executed
system.cpu.iew.iewBlockCycles                  693877                       # Number of cycles IEW is blocking
system.cpu.iew.iewDispLoadInsts                661746                       # Number of dispatched load instructions
system.cpu.iew.iewDispNonSpecInsts                959                       # Number of dispatched non-speculative instructions
system.cpu.iew.iewDispSquashedInsts               549                       # Number of squashed instructions skipped by dispatch
system.cpu.iew.iewDispStoreInsts               243726                       # Number of dispatched store instructions
system.cpu.iew.iewDispatchedInsts             4908653                       # Number of instructions dispatched to IQ
system.cpu.iew.iewExecLoadInsts                631166                       # Number of load instructions executed
system.cpu.iew.iewExecSquashedInsts             34740                       # Number of squashed instructions skipped in execute
system.cpu.iew.iewExecutedInsts               4552342                       # Number of executed instructions
system.cpu.iew.iewIQFullEvents                   3426                       # Number of times the IQ has become full, causing a stall
system.cpu.iew.iewIdleCycles                        0                       # Number of cycles IEW is idle
system.cpu.iew.iewLSQFullEvents                  8882                       # Number of times the LSQ has become full, causing a stall
system.cpu.iew.iewSquashCycles                  24674                       # Number of cycles IEW is squashing
system.cpu.iew.iewUnblockCycles                 15192                       # Number of cycles IEW is unblocking
system.cpu.iew.lsq.thread0.blockedLoads             0                       # Number of blocked loads due to partial load-store forwarding
system.cpu.iew.lsq.thread0.cacheBlocked           620                       # Number of times an access to memory failed due to the cache being blocked
system.cpu.iew.lsq.thread0.forwLoads            46552                       # Number of loads that had data forwarded from stores
system.cpu.iew.lsq.thread0.ignoredResponses          244                       # Number of memory responses ignored because the instruction is squashed
system.cpu.iew.lsq.thread0.invAddrLoads             0                       # Number of loads ignored due to an invalid address
system.cpu.iew.lsq.thread0.invAddrSwpfs             0                       # Number of software prefetches ignored due to an invalid address
system.cpu.iew.lsq.thread0.memOrderViolation           75                       # Number of memory ordering violations
system.cpu.iew.lsq.thread0.rescheduledLoads            7                       # Number of loads that were rescheduled
system.cpu.iew.lsq.thread0.squashedLoads       115238                       # Number of loads squashed
system.cpu.iew.lsq.thread0.squashedStores        29986                       # Number of stores squashed
system.cpu.iew.memOrderViolationEvents             75                       # Number of memory order violations
system.cpu.iew.predictedNotTakenIncorrect        20812                       # Number of branches that were predicted not taken incorrectly
system.cpu.iew.predictedTakenIncorrect           8281                       # Number of branches that were predicted taken incorrectly
system.cpu.iew.wb_consumers                   6287846                       # num instructions consuming a value
system.cpu.iew.wb_count                       4530167                       # cumulative count of insts written-back
system.cpu.iew.wb_fanout                     0.569609                       # average fanout of values written-back
system.cpu.iew.wb_producers                   3581615                       # num instructions producing a value
system.cpu.iew.wb_rate                       1.568875                       # insts written-back per cycle
system.cpu.iew.wb_sent                        4537126                       # cumulative count of insts sent to commit
system.cpu.int_regfile_reads                  7031695                       # number of integer regfile reads
system.cpu.int_regfile_writes                 3870558                       # number of integer regfile writes
system.cpu.ipc                               0.785811                       # IPC: Instructions Per Cycle
system.cpu.ipc_total                         0.785811                       # IPC: Total IPC of All Threads
system.cpu.iq.FU_type_0::No_OpClass             28761      0.63%      0.63% # Type of FU issued
system.cpu.iq.FU_type_0::IntAlu               3565892     77.74%     78.36% # Type of FU issued
system.cpu.iq.FU_type_0::IntMult                 2460      0.05%     78.42% # Type of FU issued
system.cpu.iq.FU_type_0::IntDiv                 42326      0.92%     79.34% # Type of FU issued
system.cpu.iq.FU_type_0::FloatAdd                5497      0.12%     79.46% # Type of FU issued
system.cpu.iq.FU_type_0::FloatCmp                   0      0.00%     79.46% # Type of FU issued
system.cpu.iq.FU_type_0::FloatCvt                1312      0.03%     79.49% # Type of FU issued
system.cpu.iq.FU_type_0::FloatMult                  0      0.00%     79.49% # Type of FU issued
system.cpu.iq.FU_type_0::FloatMultAcc               0      0.00%     79.49% # Type of FU issued
system.cpu.iq.FU_type_0::FloatDiv                   0      0.00%     79.49% # Type of FU issued
system.cpu.iq.FU_type_0::FloatMisc                  0      0.00%     79.49% # Type of FU issued
system.cpu.iq.FU_type_0::FloatSqrt                  0      0.00%     79.49% # Type of FU issued
system.cpu.iq.FU_type_0::SimdAdd                 6937      0.15%     79.64% # Type of FU issued
system.cpu.iq.FU_type_0::SimdAddAcc                 0      0.00%     79.64% # Type of FU issued
system.cpu.iq.FU_type_0::SimdAlu                19209      0.42%     80.06% # Type of FU issued
system.cpu.iq.FU_type_0::SimdCmp                    0      0.00%     80.06% # Type of FU issued
system.cpu.iq.FU_type_0::SimdCvt                18238      0.40%     80.46% # Type of FU issued
system.cpu.iq.FU_type_0::SimdMisc               16474      0.36%     80.82% # Type of FU issued
system.cpu.iq.FU_type_0::SimdMult                   0      0.00%     80.82% # Type of FU issued
system.cpu.iq.FU_type_0::SimdMultAcc                0      0.00%     80.82% # Type of FU issued
system.cpu.iq.FU_type_0::SimdShift               2321      0.05%     80.87% # Type of FU issued
system.cpu.iq.FU_type_0::SimdShiftAcc               0      0.00%     80.87% # Type of FU issued
system.cpu.iq.FU_type_0::SimdDiv                    0      0.00%     80.87% # Type of FU issued
system.cpu.iq.FU_type_0::SimdSqrt                   0      0.00%     80.87% # Type of FU issued
system.cpu.iq.FU_type_0::SimdFloatAdd               0      0.00%     80.87% # Type of FU issued
system.cpu.iq.FU_type_0::SimdFloatAlu               0      0.00%     80.87% # Type of FU issued
system.cpu.iq.FU_type_0::SimdFloatCmp               0      0.00%     80.87% # Type of FU issued
system.cpu.iq.FU_type_0::SimdFloatCvt               0      0.00%     80.87% # Type of FU issued
system.cpu.iq.FU_type_0::SimdFloatDiv               0      0.00%     80.87% # Type of FU issued
system.cpu.iq.FU_type_0::SimdFloatMisc              0      0.00%     80.87% # Type of FU issued
system.cpu.iq.FU_type_0::SimdFloatMult              0      0.00%     80.87% # Type of FU issued
system.cpu.iq.FU_type_0::SimdFloatMultAcc            0      0.00%     80.87% # Type of FU issued
system.cpu.iq.FU_type_0::SimdFloatSqrt              0      0.00%     80.87% # Type of FU issued
system.cpu.iq.FU_type_0::SimdReduceAdd              0      0.00%     80.87% # Type of FU issued
system.cpu.iq.FU_type_0::SimdReduceAlu              0      0.00%     80.87% # Type of FU issued
system.cpu.iq.FU_type_0::SimdReduceCmp              0      0.00%     80.87% # Type of FU issued
system.cpu.iq.FU_type_0::SimdFloatReduceAdd            0      0.00%     80.87% # Type of FU issued
system.cpu.iq.FU_type_0::SimdFloatReduceCmp            0      0.00%     80.87% # Type of FU issued
system.cpu.iq.FU_type_0::SimdAes                    0      0.00%     80.87% # Type of FU issued
system.cpu.iq.FU_type_0::SimdAesMix                 0      0.00%     80.87% # Type of FU issued
system.cpu.iq.FU_type_0::SimdSha1Hash               0      0.00%     80.87% # Type of FU issued
system.cpu.iq.FU_type_0::SimdSha1Hash2              0      0.00%     80.87% # Type of FU issued
system.cpu.iq.FU_type_0::SimdSha256Hash             0      0.00%     80.87% # Type of FU issued
system.cpu.iq.FU_type_0::SimdSha256Hash2            0      0.00%     80.87% # Type of FU issued
system.cpu.iq.FU_type_0::SimdShaSigma2              0      0.00%     80.87% # Type of FU issued
system.cpu.iq.FU_type_0::SimdShaSigma3              0      0.00%     80.87% # Type of FU issued
system.cpu.iq.FU_type_0::SimdPredAlu                0      0.00%     80.87% # Type of FU issued
system.cpu.iq.FU_type_0::MemRead               612759     13.36%     94.23% # Type of FU issued
system.cpu.iq.FU_type_0::MemWrite              221510      4.83%     99.05% # Type of FU issued
system.cpu.iq.FU_type_0::FloatMemRead           28717      0.63%     99.68% # Type of FU issued
system.cpu.iq.FU_type_0::FloatMemWrite          14673      0.32%    100.00% # Type of FU issued
system.cpu.iq.FU_type_0::IprAccess                  0      0.00%    100.00% # Type of FU issued
system.cpu.iq.FU_type_0::InstPrefetch               0      0.00%    100.00% # Type of FU issued
system.cpu.iq.FU_type_0::total                4587086                       # Type of FU issued
system.cpu.iq.fp_alu_accesses                  117510                       # Number of floating point alu accesses
system.cpu.iq.fp_inst_queue_reads              236370                       # Number of floating instruction queue reads
system.cpu.iq.fp_inst_queue_wakeup_accesses       113964                       # Number of floating instruction queue wakeup accesses
system.cpu.iq.fp_inst_queue_writes             161117                       # Number of floating instruction queue writes
system.cpu.iq.fu_busy_cnt                           0                       # FU busy when requested
system.cpu.iq.fu_busy_rate                          0                       # FU busy rate (busy events/executed inst)
system.cpu.iq.fu_full::No_OpClass                   0                       # attempts to use FU when none available
system.cpu.iq.fu_full::IntAlu                       0                       # attempts to use FU when none available
system.cpu.iq.fu_full::IntMult                      0                       # attempts to use FU when none available
system.cpu.iq.fu_full::IntDiv                       0                       # attempts to use FU when none available
system.cpu.iq.fu_full::FloatAdd                     0                       # attempts to use FU when none available
system.cpu.iq.fu_full::FloatCmp                     0                       # attempts to use FU when none available
system.cpu.iq.fu_full::FloatCvt                     0                       # attempts to use FU when none available
system.cpu.iq.fu_full::FloatMult                    0                       # attempts to use FU when none available
system.cpu.iq.fu_full::FloatMultAcc                 0                       # attempts to use FU when none available
system.cpu.iq.fu_full::FloatDiv                     0                       # attempts to use FU when none available
system.cpu.iq.fu_full::FloatMisc                    0                       # attempts to use FU when none available
system.cpu.iq.fu_full::FloatSqrt                    0                       # attempts to use FU when none available
system.cpu.iq.fu_full::SimdAdd                      0                       # attempts to use FU when none available
system.cpu.iq.fu_full::SimdAddAcc                   0                       # attempts to use FU when none available
system.cpu.iq.fu_full::SimdAlu                      0                       # attempts to use FU when none available
system.cpu.iq.fu_full::SimdCmp                      0                       # attempts to use FU when none available
system.cpu.iq.fu_full::SimdCvt                      0                       # attempts to use FU when none available
system.cpu.iq.fu_full::SimdMisc                     0                       # attempts to use FU when none available
system.cpu.iq.fu_full::SimdMult                     0                       # attempts to use FU when none available
system.cpu.iq.fu_full::SimdMultAcc                  0                       # attempts to use FU when none available
system.cpu.iq.fu_full::SimdShift                    0                       # attempts to use FU when none available
system.cpu.iq.fu_full::SimdShiftAcc                 0                       # attempts to use FU when none available
system.cpu.iq.fu_full::SimdDiv                      0                       # attempts to use FU when none available
system.cpu.iq.fu_full::SimdSqrt                     0                       # attempts to use FU when none available
system.cpu.iq.fu_full::SimdFloatAdd                 0                       # attempts to use FU when none available
system.cpu.iq.fu_full::SimdFloatAlu                 0                       # attempts to use FU when none available
system.cpu.iq.fu_full::SimdFloatCmp                 0                       # attempts to use FU when none available
system.cpu.iq.fu_full::SimdFloatCvt                 0                       # attempts to use FU when none available
system.cpu.iq.fu_full::SimdFloatDiv                 0                       # attempts to use FU when none available
system.cpu.iq.fu_full::SimdFloatMisc                0                       # attempts to use FU when none available
system.cpu.iq.fu_full::SimdFloatMult                0                       # attempts to use FU when none available
system.cpu.iq.fu_full::SimdFloatMultAcc             0                       # attempts to use FU when none available
system.cpu.iq.fu_full::SimdFloatSqrt                0                       # attempts to use FU when none available
system.cpu.iq.fu_full::SimdReduceAdd                0                       # attempts to use FU when none available
system.cpu.iq.fu_full::SimdReduceAlu                0                       # attempts to use FU when none available
system.cpu.iq.fu_full::SimdReduceCmp                0                       # attempts to use FU when none available
system.cpu.iq.fu_full::SimdFloatReduceAdd            0                       # attempts to use FU when none available
system.cpu.iq.fu_full::SimdFloatReduceCmp            0                       # attempts to use FU when none available
system.cpu.iq.fu_full::SimdAes                      0                       # attempts to use FU when none available
system.cpu.iq.fu_full::SimdAesMix                   0                       # attempts to use FU when none available
system.cpu.iq.fu_full::SimdSha1Hash                 0                       # attempts to use FU when none available
system.cpu.iq.fu_full::SimdSha1Hash2                0                       # attempts to use FU when none available
system.cpu.iq.fu_full::SimdSha256Hash               0                       # attempts to use FU when none available
system.cpu.iq.fu_full::SimdSha256Hash2              0                       # attempts to use FU when none available
system.cpu.iq.fu_full::SimdShaSigma2                0                       # attempts to use FU when none available
system.cpu.iq.fu_full::SimdShaSigma3                0                       # attempts to use FU when none available
system.cpu.iq.fu_full::SimdPredAlu                  0                       # attempts to use FU when none available
system.cpu.iq.fu_full::MemRead                      0                       # attempts to use FU when none available
system.cpu.iq.fu_full::MemWrite                     0                       # attempts to use FU when none available
system.cpu.iq.fu_full::FloatMemRead                 0                       # attempts to use FU when none available
system.cpu.iq.fu_full::FloatMemWrite                0                       # attempts to use FU when none available
system.cpu.iq.fu_full::IprAccess                    0                       # attempts to use FU when none available
system.cpu.iq.fu_full::InstPrefetch                 0                       # attempts to use FU when none available
system.cpu.iq.int_alu_accesses                4440815                       # Number of integer alu accesses
system.cpu.iq.int_inst_queue_reads           11680741                       # Number of integer instruction queue reads
system.cpu.iq.int_inst_queue_wakeup_accesses      4416203                       # Number of integer instruction queue wakeup accesses
system.cpu.iq.int_inst_queue_writes           5634642                       # Number of integer instruction queue writes
system.cpu.iq.iqInstsAdded                    4907502                       # Number of instructions added to the IQ (excludes non-spec)
system.cpu.iq.iqInstsIssued                   4587086                       # Number of instructions issued
system.cpu.iq.iqNonSpecInstsAdded                1151                       # Number of non-speculative instructions added to the IQ
system.cpu.iq.iqSquashedInstsExamined          887032                       # Number of squashed instructions iterated over during squash; mainly for profiling
system.cpu.iq.iqSquashedInstsIssued             18067                       # Number of squashed instructions issued
system.cpu.iq.iqSquashedNonSpecRemoved            391                       # Number of squashed non-spec instructions that were removed
system.cpu.iq.iqSquashedOperandsExamined      1325169                       # Number of squashed operands that are examined and possibly removed from graph
system.cpu.iq.issued_per_cycle::samples       2724876                       # Number of insts issued each cycle
system.cpu.iq.issued_per_cycle::mean         1.683411                       # Number of insts issued each cycle
system.cpu.iq.issued_per_cycle::stdev        1.670520                       # Number of insts issued each cycle
system.cpu.iq.issued_per_cycle::underflows            0      0.00%      0.00% # Number of insts issued each cycle
system.cpu.iq.issued_per_cycle::0             1177496     43.21%     43.21% # Number of insts issued each cycle
system.cpu.iq.issued_per_cycle::1              186978      6.86%     50.07% # Number of insts issued each cycle
system.cpu.iq.issued_per_cycle::2              331591     12.17%     62.24% # Number of insts issued each cycle
system.cpu.iq.issued_per_cycle::3              378318     13.88%     76.13% # Number of insts issued each cycle
system.cpu.iq.issued_per_cycle::4              650493     23.87%    100.00% # Number of insts issued each cycle
system.cpu.iq.issued_per_cycle::overflows            0      0.00%    100.00% # Number of insts issued each cycle
system.cpu.iq.issued_per_cycle::min_value            0                       # Number of insts issued each cycle
system.cpu.iq.issued_per_cycle::max_value            4                       # Number of insts issued each cycle
system.cpu.iq.issued_per_cycle::total         2724876                       # Number of insts issued each cycle
system.cpu.iq.rate                           1.588587                       # Inst issue rate
system.cpu.iq.vec_alu_accesses                      0                       # Number of vector alu accesses
system.cpu.iq.vec_inst_queue_reads                  0                       # Number of vector instruction queue reads
system.cpu.iq.vec_inst_queue_wakeup_accesses            0                       # Number of vector instruction queue wakeup accesses
system.cpu.iq.vec_inst_queue_writes                 0                       # Number of vector instruction queue writes
system.cpu.itb.rdAccesses                           0                       # TLB accesses on read requests
system.cpu.itb.rdMisses                             0                       # TLB misses on read requests
system.cpu.itb.wrAccesses                      269090                       # TLB accesses on write requests
system.cpu.itb.wrMisses                           388                       # TLB misses on write requests
system.cpu.memDep0.conflictingLoads              9230                       # Number of conflicting loads.
system.cpu.memDep0.conflictingStores             5237                       # Number of conflicting stores.
system.cpu.memDep0.insertedLoads               661746                       # Number of loads inserted to the mem dependence unit.
system.cpu.memDep0.insertedStores              243726                       # Number of stores inserted to the mem dependence unit.
system.cpu.misc_regfile_reads                 1731102                       # number of misc regfile reads
system.cpu.misc_regfile_writes                    702                       # number of misc regfile writes
system.cpu.numCycles                          2887526                       # number of cpu cycles simulated
system.cpu.numWorkItemsCompleted                    0                       # number of work items this cpu completed
system.cpu.numWorkItemsStarted                      0                       # number of work items this cpu started
system.cpu.process.numSyscalls                     57                       # Number of system calls
system.cpu.rename.BlockCycles                  841173                       # Number of cycles rename is blocking
system.cpu.rename.CommittedMaps               5387345                       # Number of HB maps that are committed
system.cpu.rename.FullRegisterEvents               56                       # Number of times there has been no free registers
system.cpu.rename.IQFullEvents                  46372                       # Number of times rename has blocked due to IQ full
system.cpu.rename.IdleCycles                   378154                       # Number of cycles rename is idle
system.cpu.rename.LQFullEvents                  15160                       # Number of times rename has blocked due to LQ full
system.cpu.rename.ROBFullEvents                  4917                       # Number of times rename has blocked due to ROB full
system.cpu.rename.RenameLookups              13171771                       # Number of register rename lookups that rename has made
system.cpu.rename.RenamedInsts                5050946                       # Number of instructions processed by rename
system.cpu.rename.RenamedOperands             6787409                       # Number of destination operands rename has renamed
system.cpu.rename.RunCycles                   1287904                       # Number of cycles rename is running
system.cpu.rename.SQFullEvents                  73293                       # Number of times rename has blocked due to SQ full
system.cpu.rename.SquashCycles                  24674                       # Number of cycles rename is squashing
system.cpu.rename.UnblockCycles                172460                       # Number of cycles rename is unblocking
system.cpu.rename.UndoneMaps                  1400038                       # Number of HB maps that are undone due to squashing
system.cpu.rename.fp_rename_lookups            202775                       # Number of floating rename lookups
system.cpu.rename.int_rename_lookups          7984539                       # Number of integer rename lookups
system.cpu.rename.serializeStallCycles          20511                       # count of cycles rename stalled for serializing inst
system.cpu.rename.serializingInsts                899                       # count of serializing insts renamed
system.cpu.rename.skidInsts                    207444                       # count of insts added to the skid buffer
system.cpu.rename.tempSerializingInsts            953                       # count of temporary serializing insts renamed
system.cpu.rob.rob_reads                      6721028                       # The number of ROB reads
system.cpu.rob.rob_writes                    10059975                       # The number of ROB writes
system.cpu.timesIdled                            1631                       # Number of times that the entire CPU went into an idle state and unscheduled itself
system.l2bus.snoop_filter.hit_multi_requests           13                       # Number of requests hitting in the snoop filter with multiple (>1) holders of the requested data.
system.l2bus.snoop_filter.hit_multi_snoops            0                       # Number of snoops hitting in the snoop filter with multiple (>1) holders of the requested data.
system.l2bus.snoop_filter.hit_single_requests        18629                       # Number of requests hitting in the snoop filter with a single holder of the requested data.
system.l2bus.snoop_filter.hit_single_snoops          441                       # Number of snoops hitting in the snoop filter with a single holder of the requested data.
system.l2bus.snoop_filter.tot_requests          38538                       # Total number of requests made to the snoop filter.
system.l2bus.snoop_filter.tot_snoops              441                       # Total number of snoops made to the snoop filter.
system.l2cache.prefetcher.num_hwpf_issued          681                       # number of hwpf issued
system.l2cache.prefetcher.pfBufferHit               0                       # number of redundant prefetches already in prefetch queue
system.l2cache.prefetcher.pfIdentified            681                       # number of prefetch candidates identified
system.l2cache.prefetcher.pfInCache                 0                       # number of redundant prefetches already in cache/mshr dropped
system.l2cache.prefetcher.pfRemovedFull             0                       # number of prefetches dropped due to prefetch queue size
system.l2cache.prefetcher.pfSpanPage               99                       # number of prefetches that crossed the page
system.membus.snoop_filter.hit_multi_requests            0                       # Number of requests hitting in the snoop filter with multiple (>1) holders of the requested data.
system.membus.snoop_filter.hit_multi_snoops            0                       # Number of snoops hitting in the snoop filter with multiple (>1) holders of the requested data.
system.membus.snoop_filter.hit_single_requests         9489                       # Number of requests hitting in the snoop filter with a single holder of the requested data.
system.membus.snoop_filter.hit_single_snoops            0                       # Number of snoops hitting in the snoop filter with a single holder of the requested data.
system.membus.snoop_filter.tot_requests         23098                       # Total number of requests made to the snoop filter.
system.membus.snoop_filter.tot_snoops               0                       # Total number of snoops made to the snoop filter.
system.membus.pwrStateResidencyTicks::UNDEFINED   1155010000                       # Cumulative time (in ticks) in various power states
system.membus.trans_dist::ReadResp              12266                       # Transaction distribution
system.membus.trans_dist::WritebackDirty         1352                       # Transaction distribution
system.membus.trans_dist::CleanEvict             8137                       # Transaction distribution
system.membus.trans_dist::ReadExReq              1343                       # Transaction distribution
system.membus.trans_dist::ReadExResp             1343                       # Transaction distribution
system.membus.trans_dist::ReadSharedReq         12266                       # Transaction distribution
system.membus.pkt_count_system.l2cache.mem_side::system.mem_ctrl.port        36707                       # Packet count per connected master and slave (bytes)
system.membus.pkt_count_system.l2cache.mem_side::total        36707                       # Packet count per connected master and slave (bytes)
system.membus.pkt_count::total                  36707                       # Packet count per connected master and slave (bytes)
system.membus.pkt_size_system.l2cache.mem_side::system.mem_ctrl.port       957504                       # Cumulative packet size per connected master and slave (bytes)
system.membus.pkt_size_system.l2cache.mem_side::total       957504                       # Cumulative packet size per connected master and slave (bytes)
system.membus.pkt_size::total                  957504                       # Cumulative packet size per connected master and slave (bytes)
system.membus.snoops                                0                       # Total snoops (count)
system.membus.snoopTraffic                          0                       # Total snoop traffic (bytes)
system.membus.snoop_fanout::samples             13609                       # Request fanout histogram
system.membus.snoop_fanout::mean                    0                       # Request fanout histogram
system.membus.snoop_fanout::stdev                   0                       # Request fanout histogram
system.membus.snoop_fanout::underflows              0      0.00%      0.00% # Request fanout histogram
system.membus.snoop_fanout::0                   13609    100.00%    100.00% # Request fanout histogram
system.membus.snoop_fanout::1                       0      0.00%    100.00% # Request fanout histogram
system.membus.snoop_fanout::overflows               0      0.00%    100.00% # Request fanout histogram
system.membus.snoop_fanout::min_value               0                       # Request fanout histogram
system.membus.snoop_fanout::max_value               0                       # Request fanout histogram
system.membus.snoop_fanout::total               13609                       # Request fanout histogram
system.membus.reqLayer2.occupancy            11428196                       # Layer occupancy (ticks)
system.membus.reqLayer2.utilization               1.0                       # Layer utilization (%)
system.membus.respLayer0.occupancy           29554904                       # Layer occupancy (ticks)
system.membus.respLayer0.utilization              2.6                       # Layer utilization (%)
system.l2bus.pwrStateResidencyTicks::UNDEFINED   1155010000                       # Cumulative time (in ticks) in various power states
system.l2bus.trans_dist::ReadResp               17801                       # Transaction distribution
system.l2bus.trans_dist::WritebackDirty          4138                       # Transaction distribution
system.l2bus.trans_dist::CleanEvict             24066                       # Transaction distribution
system.l2bus.trans_dist::HardPFReq                961                       # Transaction distribution
system.l2bus.trans_dist::ReadExReq               2108                       # Transaction distribution
system.l2bus.trans_dist::ReadExResp              2108                       # Transaction distribution
system.l2bus.trans_dist::ReadSharedReq          17801                       # Transaction distribution
system.l2bus.pkt_count_system.cpu.icache.mem_side::system.l2cache.cpu_side         8447                       # Packet count per connected master and slave (bytes)
system.l2bus.pkt_count_system.cpu.dcache.mem_side::system.l2cache.cpu_side        49995                       # Packet count per connected master and slave (bytes)
system.l2bus.pkt_count::total                   58442                       # Packet count per connected master and slave (bytes)
system.l2bus.pkt_size_system.cpu.icache.mem_side::system.l2cache.cpu_side       185664                       # Cumulative packet size per connected master and slave (bytes)
system.l2bus.pkt_size_system.cpu.dcache.mem_side::system.l2cache.cpu_side      1266496                       # Cumulative packet size per connected master and slave (bytes)
system.l2bus.pkt_size::total                  1452160                       # Cumulative packet size per connected master and slave (bytes)
system.l2bus.snoops                             10541                       # Total snoops (count)
system.l2bus.snoopTraffic                       86848                       # Total snoop traffic (bytes)
system.l2bus.snoop_fanout::samples              30445                       # Request fanout histogram
system.l2bus.snoop_fanout::mean              0.014912                       # Request fanout histogram
system.l2bus.snoop_fanout::stdev             0.121203                       # Request fanout histogram
system.l2bus.snoop_fanout::underflows               0      0.00%      0.00% # Request fanout histogram
system.l2bus.snoop_fanout::0                    29991     98.51%     98.51% # Request fanout histogram
system.l2bus.snoop_fanout::1                      454      1.49%    100.00% # Request fanout histogram
system.l2bus.snoop_fanout::2                        0      0.00%    100.00% # Request fanout histogram
system.l2bus.snoop_fanout::overflows                0      0.00%    100.00% # Request fanout histogram
system.l2bus.snoop_fanout::min_value                0                       # Request fanout histogram
system.l2bus.snoop_fanout::max_value                1                       # Request fanout histogram
system.l2bus.snoop_fanout::total                30445                       # Request fanout histogram
system.l2bus.respLayer1.occupancy            20409198                       # Layer occupancy (ticks)
system.l2bus.respLayer1.utilization               1.8                       # Layer utilization (%)
system.l2bus.reqLayer0.occupancy             19086205                       # Layer occupancy (ticks)
system.l2bus.reqLayer0.utilization                1.7                       # Layer utilization (%)
system.l2bus.respLayer0.occupancy             3483198                       # Layer occupancy (ticks)
system.l2bus.respLayer0.utilization               0.3                       # Layer utilization (%)
system.clk_domain.clock                           400                       # Clock period in ticks
system.clk_domain.voltage_domain.voltage            1                       # Voltage in Volts
system.cpu.pwrStateResidencyTicks::ON      1155010000                       # Cumulative time (in ticks) in various power states
system.cpu.icache.pwrStateResidencyTicks::UNDEFINED   1155010000                       # Cumulative time (in ticks) in various power states
system.cpu.icache.demand_hits::.cpu.inst       265335                       # number of demand (read+write) hits
system.cpu.icache.demand_hits::total           265335                       # number of demand (read+write) hits
system.cpu.icache.overall_hits::.cpu.inst       265335                       # number of overall hits
system.cpu.icache.overall_hits::total          265335                       # number of overall hits
system.cpu.icache.demand_misses::.cpu.inst         3620                       # number of demand (read+write) misses
system.cpu.icache.demand_misses::total           3620                       # number of demand (read+write) misses
system.cpu.icache.overall_misses::.cpu.inst         3620                       # number of overall misses
system.cpu.icache.overall_misses::total          3620                       # number of overall misses
system.cpu.icache.demand_miss_latency::.cpu.inst    178784400                       # number of demand (read+write) miss cycles
system.cpu.icache.demand_miss_latency::total    178784400                       # number of demand (read+write) miss cycles
system.cpu.icache.overall_miss_latency::.cpu.inst    178784400                       # number of overall miss cycles
system.cpu.icache.overall_miss_latency::total    178784400                       # number of overall miss cycles
system.cpu.icache.demand_accesses::.cpu.inst       268955                       # number of demand (read+write) accesses
system.cpu.icache.demand_accesses::total       268955                       # number of demand (read+write) accesses
system.cpu.icache.overall_accesses::.cpu.inst       268955                       # number of overall (read+write) accesses
system.cpu.icache.overall_accesses::total       268955                       # number of overall (read+write) accesses
system.cpu.icache.demand_miss_rate::.cpu.inst     0.013460                       # miss rate for demand accesses
system.cpu.icache.demand_miss_rate::total     0.013460                       # miss rate for demand accesses
system.cpu.icache.overall_miss_rate::.cpu.inst     0.013460                       # miss rate for overall accesses
system.cpu.icache.overall_miss_rate::total     0.013460                       # miss rate for overall accesses
system.cpu.icache.demand_avg_miss_latency::.cpu.inst 49387.955801                       # average overall miss latency
system.cpu.icache.demand_avg_miss_latency::total 49387.955801                       # average overall miss latency
system.cpu.icache.overall_avg_miss_latency::.cpu.inst 49387.955801                       # average overall miss latency
system.cpu.icache.overall_avg_miss_latency::total 49387.955801                       # average overall miss latency
system.cpu.icache.blocked_cycles::no_mshrs           51                       # number of cycles access was blocked
system.cpu.icache.blocked_cycles::no_targets            0                       # number of cycles access was blocked
system.cpu.icache.blocked::no_mshrs                 2                       # number of cycles access was blocked
system.cpu.icache.blocked::no_targets               0                       # number of cycles access was blocked
system.cpu.icache.avg_blocked_cycles::no_mshrs    25.500000                       # average number of cycles each access was blocked
system.cpu.icache.avg_blocked_cycles::no_targets          nan                       # average number of cycles each access was blocked
system.cpu.icache.writebacks::.writebacks            2                       # number of writebacks
system.cpu.icache.writebacks::total                 2                       # number of writebacks
system.cpu.icache.demand_mshr_hits::.cpu.inst          718                       # number of demand (read+write) MSHR hits
system.cpu.icache.demand_mshr_hits::total          718                       # number of demand (read+write) MSHR hits
system.cpu.icache.overall_mshr_hits::.cpu.inst          718                       # number of overall MSHR hits
system.cpu.icache.overall_mshr_hits::total          718                       # number of overall MSHR hits
system.cpu.icache.demand_mshr_misses::.cpu.inst         2902                       # number of demand (read+write) MSHR misses
system.cpu.icache.demand_mshr_misses::total         2902                       # number of demand (read+write) MSHR misses
system.cpu.icache.overall_mshr_misses::.cpu.inst         2902                       # number of overall MSHR misses
system.cpu.icache.overall_mshr_misses::total         2902                       # number of overall MSHR misses
system.cpu.icache.demand_mshr_miss_latency::.cpu.inst    143844400                       # number of demand (read+write) MSHR miss cycles
system.cpu.icache.demand_mshr_miss_latency::total    143844400                       # number of demand (read+write) MSHR miss cycles
system.cpu.icache.overall_mshr_miss_latency::.cpu.inst    143844400                       # number of overall MSHR miss cycles
system.cpu.icache.overall_mshr_miss_latency::total    143844400                       # number of overall MSHR miss cycles
system.cpu.icache.demand_mshr_miss_rate::.cpu.inst     0.010790                       # mshr miss rate for demand accesses
system.cpu.icache.demand_mshr_miss_rate::total     0.010790                       # mshr miss rate for demand accesses
system.cpu.icache.overall_mshr_miss_rate::.cpu.inst     0.010790                       # mshr miss rate for overall accesses
system.cpu.icache.overall_mshr_miss_rate::total     0.010790                       # mshr miss rate for overall accesses
system.cpu.icache.demand_avg_mshr_miss_latency::.cpu.inst 49567.332874                       # average overall mshr miss latency
system.cpu.icache.demand_avg_mshr_miss_latency::total 49567.332874                       # average overall mshr miss latency
system.cpu.icache.overall_avg_mshr_miss_latency::.cpu.inst 49567.332874                       # average overall mshr miss latency
system.cpu.icache.overall_avg_mshr_miss_latency::total 49567.332874                       # average overall mshr miss latency
system.cpu.icache.replacements                   2646                       # number of replacements
system.cpu.icache.ReadReq_hits::.cpu.inst       265335                       # number of ReadReq hits
system.cpu.icache.ReadReq_hits::total          265335                       # number of ReadReq hits
system.cpu.icache.ReadReq_misses::.cpu.inst         3620                       # number of ReadReq misses
system.cpu.icache.ReadReq_misses::total          3620                       # number of ReadReq misses
system.cpu.icache.ReadReq_miss_latency::.cpu.inst    178784400                       # number of ReadReq miss cycles
system.cpu.icache.ReadReq_miss_latency::total    178784400                       # number of ReadReq miss cycles
system.cpu.icache.ReadReq_accesses::.cpu.inst       268955                       # number of ReadReq accesses(hits+misses)
system.cpu.icache.ReadReq_accesses::total       268955                       # number of ReadReq accesses(hits+misses)
system.cpu.icache.ReadReq_miss_rate::.cpu.inst     0.013460                       # miss rate for ReadReq accesses
system.cpu.icache.ReadReq_miss_rate::total     0.013460                       # miss rate for ReadReq accesses
system.cpu.icache.ReadReq_avg_miss_latency::.cpu.inst 49387.955801                       # average ReadReq miss latency
system.cpu.icache.ReadReq_avg_miss_latency::total 49387.955801                       # average ReadReq miss latency
system.cpu.icache.ReadReq_mshr_hits::.cpu.inst          718                       # number of ReadReq MSHR hits
system.cpu.icache.ReadReq_mshr_hits::total          718                       # number of ReadReq MSHR hits
system.cpu.icache.ReadReq_mshr_misses::.cpu.inst         2902                       # number of ReadReq MSHR misses
system.cpu.icache.ReadReq_mshr_misses::total         2902                       # number of ReadReq MSHR misses
system.cpu.icache.ReadReq_mshr_miss_latency::.cpu.inst    143844400                       # number of ReadReq MSHR miss cycles
system.cpu.icache.ReadReq_mshr_miss_latency::total    143844400                       # number of ReadReq MSHR miss cycles
system.cpu.icache.ReadReq_mshr_miss_rate::.cpu.inst     0.010790                       # mshr miss rate for ReadReq accesses
system.cpu.icache.ReadReq_mshr_miss_rate::total     0.010790                       # mshr miss rate for ReadReq accesses
system.cpu.icache.ReadReq_avg_mshr_miss_latency::.cpu.inst 49567.332874                       # average ReadReq mshr miss latency
system.cpu.icache.ReadReq_avg_mshr_miss_latency::total 49567.332874                       # average ReadReq mshr miss latency
system.cpu.icache.prefetcher.pwrStateResidencyTicks::UNDEFINED   1155010000                       # Cumulative time (in ticks) in various power states
system.cpu.icache.tags.pwrStateResidencyTicks::UNDEFINED   1155010000                       # Cumulative time (in ticks) in various power states
system.cpu.icache.tags.tagsinuse           253.619603                       # Cycle average of tags in use
system.cpu.icache.tags.total_refs              252050                       # Total number of references to valid blocks.
system.cpu.icache.tags.sampled_refs              2646                       # Sample count of references to valid blocks.
system.cpu.icache.tags.avg_refs             95.256992                       # Average number of references to valid blocks.
system.cpu.icache.tags.warmup_cycle             66400                       # Cycle when the warmup percentage was hit.
system.cpu.icache.tags.occ_blocks::.cpu.inst   253.619603                       # Average occupied blocks per requestor
system.cpu.icache.tags.occ_percent::.cpu.inst     0.990702                       # Average percentage of cache occupancy
system.cpu.icache.tags.occ_percent::total     0.990702                       # Average percentage of cache occupancy
system.cpu.icache.tags.occ_task_id_blocks::1024          256                       # Occupied blocks per task id
system.cpu.icache.tags.age_task_id_blocks_1024::0          115                       # Occupied blocks per task id
system.cpu.icache.tags.age_task_id_blocks_1024::1           95                       # Occupied blocks per task id
system.cpu.icache.tags.age_task_id_blocks_1024::2           46                       # Occupied blocks per task id
system.cpu.icache.tags.occ_task_id_percent::1024            1                       # Percentage of cache occupancy per task id
system.cpu.icache.tags.tag_accesses            540812                       # Number of tag accesses
system.cpu.icache.tags.data_accesses           540812                       # Number of data accesses
system.cpu.dtb.walker.pwrStateResidencyTicks::UNDEFINED   1155010000                       # Cumulative time (in ticks) in various power states
system.cpu.interrupts.clk_domain.clock           6400                       # Clock period in ticks
system.cpu.itb.walker.pwrStateResidencyTicks::UNDEFINED   1155010000                       # Cumulative time (in ticks) in various power states
system.cpu.dcache.pwrStateResidencyTicks::UNDEFINED   1155010000                       # Cumulative time (in ticks) in various power states
system.cpu.dcache.demand_hits::.cpu.data       760897                       # number of demand (read+write) hits
system.cpu.dcache.demand_hits::total           760897                       # number of demand (read+write) hits
system.cpu.dcache.overall_hits::.cpu.data       760897                       # number of overall hits
system.cpu.dcache.overall_hits::total          760897                       # number of overall hits
system.cpu.dcache.demand_misses::.cpu.data        34786                       # number of demand (read+write) misses
system.cpu.dcache.demand_misses::total          34786                       # number of demand (read+write) misses
system.cpu.dcache.overall_misses::.cpu.data        34786                       # number of overall misses
system.cpu.dcache.overall_misses::total         34786                       # number of overall misses
system.cpu.dcache.demand_miss_latency::.cpu.data   1684938399                       # number of demand (read+write) miss cycles
system.cpu.dcache.demand_miss_latency::total   1684938399                       # number of demand (read+write) miss cycles
system.cpu.dcache.overall_miss_latency::.cpu.data   1684938399                       # number of overall miss cycles
system.cpu.dcache.overall_miss_latency::total   1684938399                       # number of overall miss cycles
system.cpu.dcache.demand_accesses::.cpu.data       795683                       # number of demand (read+write) accesses
system.cpu.dcache.demand_accesses::total       795683                       # number of demand (read+write) accesses
system.cpu.dcache.overall_accesses::.cpu.data       795683                       # number of overall (read+write) accesses
system.cpu.dcache.overall_accesses::total       795683                       # number of overall (read+write) accesses
system.cpu.dcache.demand_miss_rate::.cpu.data     0.043718                       # miss rate for demand accesses
system.cpu.dcache.demand_miss_rate::total     0.043718                       # miss rate for demand accesses
system.cpu.dcache.overall_miss_rate::.cpu.data     0.043718                       # miss rate for overall accesses
system.cpu.dcache.overall_miss_rate::total     0.043718                       # miss rate for overall accesses
system.cpu.dcache.demand_avg_miss_latency::.cpu.data 48437.256339                       # average overall miss latency
system.cpu.dcache.demand_avg_miss_latency::total 48437.256339                       # average overall miss latency
system.cpu.dcache.overall_avg_miss_latency::.cpu.data 48437.256339                       # average overall miss latency
system.cpu.dcache.overall_avg_miss_latency::total 48437.256339                       # average overall miss latency
system.cpu.dcache.blocked_cycles::no_mshrs        28703                       # number of cycles access was blocked
system.cpu.dcache.blocked_cycles::no_targets          201                       # number of cycles access was blocked
system.cpu.dcache.blocked::no_mshrs               781                       # number of cycles access was blocked
system.cpu.dcache.blocked::no_targets               2                       # number of cycles access was blocked
system.cpu.dcache.avg_blocked_cycles::no_mshrs    36.751601                       # average number of cycles each access was blocked
system.cpu.dcache.avg_blocked_cycles::no_targets   100.500000                       # average number of cycles each access was blocked
system.cpu.dcache.unused_prefetches              1782                       # number of HardPF blocks evicted w/o reference
system.cpu.dcache.writebacks::.writebacks         2784                       # number of writebacks
system.cpu.dcache.writebacks::total              2784                       # number of writebacks
system.cpu.dcache.demand_mshr_hits::.cpu.data        22156                       # number of demand (read+write) MSHR hits
system.cpu.dcache.demand_mshr_hits::total        22156                       # number of demand (read+write) MSHR hits
system.cpu.dcache.overall_mshr_hits::.cpu.data        22156                       # number of overall MSHR hits
system.cpu.dcache.overall_mshr_hits::total        22156                       # number of overall MSHR hits
system.cpu.dcache.demand_mshr_misses::.cpu.data        12630                       # number of demand (read+write) MSHR misses
system.cpu.dcache.demand_mshr_misses::total        12630                       # number of demand (read+write) MSHR misses
system.cpu.dcache.overall_mshr_misses::.cpu.data        12630                       # number of overall MSHR misses
system.cpu.dcache.overall_mshr_misses::.cpu.dcache.prefetcher         4377                       # number of overall MSHR misses
system.cpu.dcache.overall_mshr_misses::total        17007                       # number of overall MSHR misses
system.cpu.dcache.demand_mshr_miss_latency::.cpu.data    579800799                       # number of demand (read+write) MSHR miss cycles
system.cpu.dcache.demand_mshr_miss_latency::total    579800799                       # number of demand (read+write) MSHR miss cycles
system.cpu.dcache.overall_mshr_miss_latency::.cpu.data    579800799                       # number of overall MSHR miss cycles
system.cpu.dcache.overall_mshr_miss_latency::.cpu.dcache.prefetcher    248252884                       # number of overall MSHR miss cycles
system.cpu.dcache.overall_mshr_miss_latency::total    828053683                       # number of overall MSHR miss cycles
system.cpu.dcache.demand_mshr_miss_rate::.cpu.data     0.015873                       # mshr miss rate for demand accesses
system.cpu.dcache.demand_mshr_miss_rate::total     0.015873                       # mshr miss rate for demand accesses
system.cpu.dcache.overall_mshr_miss_rate::.cpu.data     0.015873                       # mshr miss rate for overall accesses
system.cpu.dcache.overall_mshr_miss_rate::.cpu.dcache.prefetcher          inf                       # mshr miss rate for overall accesses
system.cpu.dcache.overall_mshr_miss_rate::total     0.021374                       # mshr miss rate for overall accesses
system.cpu.dcache.demand_avg_mshr_miss_latency::.cpu.data 45906.634917                       # average overall mshr miss latency
system.cpu.dcache.demand_avg_mshr_miss_latency::total 45906.634917                       # average overall mshr miss latency
system.cpu.dcache.overall_avg_mshr_miss_latency::.cpu.data 45906.634917                       # average overall mshr miss latency
system.cpu.dcache.overall_avg_mshr_miss_latency::.cpu.dcache.prefetcher 56717.588302                       # average overall mshr miss latency
system.cpu.dcache.overall_avg_mshr_miss_latency::total 48688.991768                       # average overall mshr miss latency
system.cpu.dcache.replacements                  15983                       # number of replacements
system.cpu.dcache.ReadReq_hits::.cpu.data       549297                       # number of ReadReq hits
system.cpu.dcache.ReadReq_hits::total          549297                       # number of ReadReq hits
system.cpu.dcache.ReadReq_misses::.cpu.data        32639                       # number of ReadReq misses
system.cpu.dcache.ReadReq_misses::total         32639                       # number of ReadReq misses
system.cpu.dcache.ReadReq_miss_latency::.cpu.data   1579855200                       # number of ReadReq miss cycles
system.cpu.dcache.ReadReq_miss_latency::total   1579855200                       # number of ReadReq miss cycles
system.cpu.dcache.ReadReq_accesses::.cpu.data       581936                       # number of ReadReq accesses(hits+misses)
system.cpu.dcache.ReadReq_accesses::total       581936                       # number of ReadReq accesses(hits+misses)
system.cpu.dcache.ReadReq_miss_rate::.cpu.data     0.056087                       # miss rate for ReadReq accesses
system.cpu.dcache.ReadReq_miss_rate::total     0.056087                       # miss rate for ReadReq accesses
system.cpu.dcache.ReadReq_avg_miss_latency::.cpu.data 48403.909433                       # average ReadReq miss latency
system.cpu.dcache.ReadReq_avg_miss_latency::total 48403.909433                       # average ReadReq miss latency
system.cpu.dcache.ReadReq_mshr_hits::.cpu.data        22116                       # number of ReadReq MSHR hits
system.cpu.dcache.ReadReq_mshr_hits::total        22116                       # number of ReadReq MSHR hits
system.cpu.dcache.ReadReq_mshr_misses::.cpu.data        10523                       # number of ReadReq MSHR misses
system.cpu.dcache.ReadReq_mshr_misses::total        10523                       # number of ReadReq MSHR misses
system.cpu.dcache.ReadReq_mshr_miss_latency::.cpu.data    477739600                       # number of ReadReq MSHR miss cycles
system.cpu.dcache.ReadReq_mshr_miss_latency::total    477739600                       # number of ReadReq MSHR miss cycles
system.cpu.dcache.ReadReq_mshr_miss_rate::.cpu.data     0.018083                       # mshr miss rate for ReadReq accesses
system.cpu.dcache.ReadReq_mshr_miss_rate::total     0.018083                       # mshr miss rate for ReadReq accesses
system.cpu.dcache.ReadReq_avg_mshr_miss_latency::.cpu.data 45399.562862                       # average ReadReq mshr miss latency
system.cpu.dcache.ReadReq_avg_mshr_miss_latency::total 45399.562862                       # average ReadReq mshr miss latency
system.cpu.dcache.WriteReq_hits::.cpu.data       211600                       # number of WriteReq hits
system.cpu.dcache.WriteReq_hits::total         211600                       # number of WriteReq hits
system.cpu.dcache.WriteReq_misses::.cpu.data         2147                       # number of WriteReq misses
system.cpu.dcache.WriteReq_misses::total         2147                       # number of WriteReq misses
system.cpu.dcache.WriteReq_miss_latency::.cpu.data    105083199                       # number of WriteReq miss cycles
system.cpu.dcache.WriteReq_miss_latency::total    105083199                       # number of WriteReq miss cycles
system.cpu.dcache.WriteReq_accesses::.cpu.data       213747                       # number of WriteReq accesses(hits+misses)
system.cpu.dcache.WriteReq_accesses::total       213747                       # number of WriteReq accesses(hits+misses)
system.cpu.dcache.WriteReq_miss_rate::.cpu.data     0.010045                       # miss rate for WriteReq accesses
system.cpu.dcache.WriteReq_miss_rate::total     0.010045                       # miss rate for WriteReq accesses
system.cpu.dcache.WriteReq_avg_miss_latency::.cpu.data 48944.200745                       # average WriteReq miss latency
system.cpu.dcache.WriteReq_avg_miss_latency::total 48944.200745                       # average WriteReq miss latency
system.cpu.dcache.WriteReq_mshr_hits::.cpu.data           40                       # number of WriteReq MSHR hits
system.cpu.dcache.WriteReq_mshr_hits::total           40                       # number of WriteReq MSHR hits
system.cpu.dcache.WriteReq_mshr_misses::.cpu.data         2107                       # number of WriteReq MSHR misses
system.cpu.dcache.WriteReq_mshr_misses::total         2107                       # number of WriteReq MSHR misses
[...]
system.l2cache.overall_mshr_miss_latency::total     23058362                       # number of overall MSHR miss cycles
system.l2cache.demand_mshr_miss_rate::.cpu.inst     0.534404                       # mshr miss rate for demand accesses
system.l2cache.demand_mshr_miss_rate::.cpu.data     0.491379                       # mshr miss rate for demand accesses
system.l2cache.demand_mshr_miss_rate::.cpu.dcache.prefetcher     0.897436                       # mshr miss rate for demand accesses
system.l2cache.demand_mshr_miss_rate::total     0.540311                       # mshr miss rate for demand accesses
system.l2cache.overall_mshr_miss_rate::.cpu.inst     0.534404                       # mshr miss rate for overall accesses
system.l2cache.overall_mshr_miss_rate::.cpu.data     0.491379                       # mshr miss rate for overall accesses
system.l2cache.overall_mshr_miss_rate::.cpu.dcache.prefetcher     0.897436                       # mshr miss rate for overall accesses
system.l2cache.overall_mshr_miss_rate::.l2cache.prefetcher          inf                       # mshr miss rate for overall accesses
system.l2cache.overall_mshr_miss_rate::total     0.544554                       # mshr miss rate for overall accesses
system.l2cache.demand_avg_mshr_miss_latency::.cpu.inst 60221.459227                       # average overall mshr miss latency
system.l2cache.demand_avg_mshr_miss_latency::.cpu.data 59726.315789                       # average overall mshr miss latency
system.l2cache.demand_avg_mshr_miss_latency::.cpu.dcache.prefetcher 58741.828571                       # average overall mshr miss latency
system.l2cache.demand_avg_mshr_miss_latency::total 59938.125654                       # average overall mshr miss latency
system.l2cache.overall_avg_mshr_miss_latency::.cpu.inst 60221.459227                       # average overall mshr miss latency
system.l2cache.overall_avg_mshr_miss_latency::.cpu.data 59726.315789                       # average overall mshr miss latency
system.l2cache.overall_avg_mshr_miss_latency::.cpu.dcache.prefetcher 58741.828571                       # average overall mshr miss latency
system.l2cache.overall_avg_mshr_miss_latency::.l2cache.prefetcher 53999.333333                       # average overall mshr miss latency
system.l2cache.overall_avg_mshr_miss_latency::total 59891.849351                       # average overall mshr miss latency
system.l2cache.replacements                       392                       # number of replacements
system.l2cache.WritebackDirty_hits::.writebacks           86                       # number of WritebackDirty hits
system.l2cache.WritebackDirty_hits::total           86                       # number of WritebackDirty hits
system.l2cache.WritebackDirty_accesses::.writebacks           86                       # number of WritebackDirty accesses(hits+misses)
system.l2cache.WritebackDirty_accesses::total           86                       # number of WritebackDirty accesses(hits+misses)
system.l2cache.CleanEvict_mshr_misses::.writebacks            8                       # number of CleanEvict MSHR misses
system.l2cache.CleanEvict_mshr_misses::total            8                       # number of CleanEvict MSHR misses
system.l2cache.CleanEvict_mshr_miss_rate::.writebacks          inf                       # mshr miss rate for CleanEvict accesses
system.l2cache.CleanEvict_mshr_miss_rate::total          inf                       # mshr miss rate for CleanEvict accesses
system.l2cache.HardPFReq_mshr_misses::.l2cache.prefetcher            3                       # number of HardPFReq MSHR misses
system.l2cache.HardPFReq_mshr_misses::total            3                       # number of HardPFReq MSHR misses
system.l2cache.HardPFReq_mshr_miss_latency::.l2cache.prefetcher       161998                       # number of HardPFReq MSHR miss cycles
system.l2cache.HardPFReq_mshr_miss_latency::total       161998                       # number of HardPFReq MSHR miss cycles
system.l2cache.HardPFReq_mshr_miss_rate::.l2cache.prefetcher          inf                       # mshr miss rate for HardPFReq accesses
system.l2cache.HardPFReq_mshr_miss_rate::total          inf                       # mshr miss rate for HardPFReq accesses
system.l2cache.HardPFReq_avg_mshr_miss_latency::.l2cache.prefetcher 53999.333333                       # average HardPFReq mshr miss latency
system.l2cache.HardPFReq_avg_mshr_miss_latency::total 53999.333333                       # average HardPFReq mshr miss latency
system.l2cache.ReadExReq_hits::.cpu.data            3                       # number of ReadExReq hits
system.l2cache.ReadExReq_hits::total                3                       # number of ReadExReq hits
system.l2cache.ReadExReq_misses::.cpu.data            7                       # number of ReadExReq misses
system.l2cache.ReadExReq_misses::total              7                       # number of ReadExReq misses
system.l2cache.ReadExReq_miss_latency::.cpu.data       442400                       # number of ReadExReq miss cycles
system.l2cache.ReadExReq_miss_latency::total       442400                       # number of ReadExReq miss cycles
system.l2cache.ReadExReq_accesses::.cpu.data           10                       # number of ReadExReq accesses(hits+misses)
system.l2cache.ReadExReq_accesses::total           10                       # number of ReadExReq accesses(hits+misses)
system.l2cache.ReadExReq_miss_rate::.cpu.data     0.700000                       # miss rate for ReadExReq accesses
system.l2cache.ReadExReq_miss_rate::total     0.700000                       # miss rate for ReadExReq accesses
system.l2cache.ReadExReq_avg_miss_latency::.cpu.data        63200                       # average ReadExReq miss latency
system.l2cache.ReadExReq_avg_miss_latency::total        63200                       # average ReadExReq miss latency
system.l2cache.ReadExReq_mshr_misses::.cpu.data            7                       # number of ReadExReq MSHR misses
system.l2cache.ReadExReq_mshr_misses::total            7                       # number of ReadExReq MSHR misses
system.l2cache.ReadExReq_mshr_miss_latency::.cpu.data       386400                       # number of ReadExReq MSHR miss cycles
system.l2cache.ReadExReq_mshr_miss_latency::total       386400                       # number of ReadExReq MSHR miss cycles
system.l2cache.ReadExReq_mshr_miss_rate::.cpu.data     0.700000                       # mshr miss rate for ReadExReq accesses
system.l2cache.ReadExReq_mshr_miss_rate::total     0.700000                       # mshr miss rate for ReadExReq accesses
system.l2cache.ReadExReq_avg_mshr_miss_latency::.cpu.data        55200                       # average ReadExReq mshr miss latency
system.l2cache.ReadExReq_avg_mshr_miss_latency::total        55200                       # average ReadExReq mshr miss latency
system.l2cache.ReadSharedReq_hits::.cpu.inst          203                       # number of ReadSharedReq hits
system.l2cache.ReadSharedReq_hits::.cpu.data          115                       # number of ReadSharedReq hits
system.l2cache.ReadSharedReq_hits::.cpu.dcache.prefetcher            4                       # number of ReadSharedReq hits
system.l2cache.ReadSharedReq_hits::total          322                       # number of ReadSharedReq hits
system.l2cache.ReadSharedReq_misses::.cpu.inst          233                       # number of ReadSharedReq misses
system.l2cache.ReadSharedReq_misses::.cpu.data          107                       # number of ReadSharedReq misses
system.l2cache.ReadSharedReq_misses::.cpu.dcache.prefetcher           35                       # number of ReadSharedReq misses
system.l2cache.ReadSharedReq_misses::total          375                       # number of ReadSharedReq misses
system.l2cache.ReadSharedReq_miss_latency::.cpu.inst     15895600                       # number of ReadSharedReq miss cycles
system.l2cache.ReadSharedReq_miss_latency::.cpu.data      7278400                       # number of ReadSharedReq miss cycles
system.l2cache.ReadSharedReq_miss_latency::.cpu.dcache.prefetcher      2335964                       # number of ReadSharedReq miss cycles
system.l2cache.ReadSharedReq_miss_latency::total     25509964                       # number of ReadSharedReq miss cycles
system.l2cache.ReadSharedReq_accesses::.cpu.inst          436                       # number of ReadSharedReq accesses(hits+misses)
system.l2cache.ReadSharedReq_accesses::.cpu.data          222                       # number of ReadSharedReq accesses(hits+misses)
system.l2cache.ReadSharedReq_accesses::.cpu.dcache.prefetcher           39                       # number of ReadSharedReq accesses(hits+misses)
system.l2cache.ReadSharedReq_accesses::total          697                       # number of ReadSharedReq accesses(hits+misses)
system.l2cache.ReadSharedReq_miss_rate::.cpu.inst     0.534404                       # miss rate for ReadSharedReq accesses
system.l2cache.ReadSharedReq_miss_rate::.cpu.data     0.481982                       # miss rate for ReadSharedReq accesses
system.l2cache.ReadSharedReq_miss_rate::.cpu.dcache.prefetcher     0.897436                       # miss rate for ReadSharedReq accesses
system.l2cache.ReadSharedReq_miss_rate::total     0.538020                       # miss rate for ReadSharedReq accesses
system.l2cache.ReadSharedReq_avg_miss_latency::.cpu.inst 68221.459227                       # average ReadSharedReq miss latency
system.l2cache.ReadSharedReq_avg_miss_latency::.cpu.data 68022.429907                       # average ReadSharedReq miss latency
system.l2cache.ReadSharedReq_avg_miss_latency::.cpu.dcache.prefetcher 66741.828571                       # average ReadSharedReq miss latency
system.l2cache.ReadSharedReq_avg_miss_latency::total 68026.570667                       # average ReadSharedReq miss latency
system.l2cache.ReadSharedReq_mshr_misses::.cpu.inst          233                       # number of ReadSharedReq MSHR misses
system.l2cache.ReadSharedReq_mshr_misses::.cpu.data          107                       # number of ReadSharedReq MSHR misses
system.l2cache.ReadSharedReq_mshr_misses::.cpu.dcache.prefetcher           35                       # number of ReadSharedReq MSHR misses
system.l2cache.ReadSharedReq_mshr_misses::total          375                       # number of ReadSharedReq MSHR misses
system.l2cache.ReadSharedReq_mshr_miss_latency::.cpu.inst     14031600                       # number of ReadSharedReq MSHR miss cycles
system.l2cache.ReadSharedReq_mshr_miss_latency::.cpu.data      6422400                       # number of ReadSharedReq MSHR miss cycles
system.l2cache.ReadSharedReq_mshr_miss_latency::.cpu.dcache.prefetcher      2055964                       # number of ReadSharedReq MSHR miss cycles
system.l2cache.ReadSharedReq_mshr_miss_latency::total     22509964                       # number of ReadSharedReq MSHR miss cycles
system.l2cache.ReadSharedReq_mshr_miss_rate::.cpu.inst     0.534404                       # mshr miss rate for ReadSharedReq accesses
system.l2cache.ReadSharedReq_mshr_miss_rate::.cpu.data     0.481982                       # mshr miss rate for ReadSharedReq accesses
system.l2cache.ReadSharedReq_mshr_miss_rate::.cpu.dcache.prefetcher     0.897436                       # mshr miss rate for ReadSharedReq accesses
system.l2cache.ReadSharedReq_mshr_miss_rate::total     0.538020                       # mshr miss rate for ReadSharedReq accesses
system.l2cache.ReadSharedReq_avg_mshr_miss_latency::.cpu.inst 60221.459227                       # average ReadSharedReq mshr miss latency
system.l2cache.ReadSharedReq_avg_mshr_miss_latency::.cpu.data 60022.429907                       # average ReadSharedReq mshr miss latency
system.l2cache.ReadSharedReq_avg_mshr_miss_latency::.cpu.dcache.prefetcher 58741.828571                       # average ReadSharedReq mshr miss latency
system.l2cache.ReadSharedReq_avg_mshr_miss_latency::total 60026.570667                       # average ReadSharedReq mshr miss latency
system.l2cache.prefetcher.pwrStateResidencyTicks::UNDEFINED     27916800                       # Cumulative time (in ticks) in various power states
system.l2cache.tags.pwrStateResidencyTicks::UNDEFINED     27916800                       # Cumulative time (in ticks) in various power states
system.l2cache.tags.tagsinuse                    4096                       # Cycle average of tags in use
system.l2cache.tags.total_refs                  14083                       # Total number of references to valid blocks.
system.l2cache.tags.sampled_refs                 4488                       # Sample count of references to valid blocks.
system.l2cache.tags.avg_refs                 3.137923                       # Average number of references to valid blocks.
system.l2cache.tags.warmup_cycle                    0                       # Cycle when the warmup percentage was hit.
system.l2cache.tags.occ_blocks::.writebacks    43.961041                       # Average occupied blocks per requestor
system.l2cache.tags.occ_blocks::.cpu.inst  1143.422516                       # Average occupied blocks per requestor
system.l2cache.tags.occ_blocks::.cpu.data  1829.744081                       # Average occupied blocks per requestor
system.l2cache.tags.occ_blocks::.cpu.dcache.prefetcher   941.111916                       # Average occupied blocks per requestor
system.l2cache.tags.occ_blocks::.l2cache.prefetcher   137.760445                       # Average occupied blocks per requestor
system.l2cache.tags.occ_percent::.writebacks     0.010733                       # Average percentage of cache occupancy
system.l2cache.tags.occ_percent::.cpu.inst     0.279156                       # Average percentage of cache occupancy
system.l2cache.tags.occ_percent::.cpu.data     0.446715                       # Average percentage of cache occupancy
system.l2cache.tags.occ_percent::.cpu.dcache.prefetcher     0.229764                       # Average percentage of cache occupancy
system.l2cache.tags.occ_percent::.l2cache.prefetcher     0.033633                       # Average percentage of cache occupancy
system.l2cache.tags.occ_percent::total              1                       # Average percentage of cache occupancy
system.l2cache.tags.occ_task_id_blocks::1022         1025                       # Occupied blocks per task id
system.l2cache.tags.occ_task_id_blocks::1024         3071                       # Occupied blocks per task id
system.l2cache.tags.age_task_id_blocks_1022::0           11                       # Occupied blocks per task id
system.l2cache.tags.age_task_id_blocks_1022::1           41                       # Occupied blocks per task id
system.l2cache.tags.age_task_id_blocks_1022::2          970                       # Occupied blocks per task id
system.l2cache.tags.age_task_id_blocks_1022::3            3                       # Occupied blocks per task id
system.l2cache.tags.age_task_id_blocks_1024::0          176                       # Occupied blocks per task id
system.l2cache.tags.age_task_id_blocks_1024::1          354                       # Occupied blocks per task id
system.l2cache.tags.age_task_id_blocks_1024::2         2449                       # Occupied blocks per task id
system.l2cache.tags.age_task_id_blocks_1024::3           92                       # Occupied blocks per task id
system.l2cache.tags.occ_task_id_percent::1022     0.250244                       # Percentage of cache occupancy per task id
system.l2cache.tags.occ_task_id_percent::1024     0.749756                       # Percentage of cache occupancy per task id
system.l2cache.tags.tag_accesses                11696                       # Number of tag accesses
system.l2cache.tags.data_accesses               11696                       # Number of data accesses
system.mem_ctrl.pwrStateResidencyTicks::UNDEFINED     27916800                       # Cumulative time (in ticks) in various power states
system.mem_ctrl.bytes_read::.cpu.inst           14912                       # Number of bytes read from this memory
system.mem_ctrl.bytes_read::.cpu.data            7296                       # Number of bytes read from this memory
system.mem_ctrl.bytes_read::.cpu.dcache.prefetcher         2240                       # Number of bytes read from this memory
system.mem_ctrl.bytes_read::.l2cache.prefetcher          192                       # Number of bytes read from this memory
system.mem_ctrl.bytes_read::total               24640                       # Number of bytes read from this memory
system.mem_ctrl.bytes_inst_read::.cpu.inst        14912                       # Number of instructions bytes read from this memory
system.mem_ctrl.bytes_inst_read::total          14912                       # Number of instructions bytes read from this memory
system.mem_ctrl.bytes_written::.writebacks         1344                       # Number of bytes written to this memory
system.mem_ctrl.bytes_written::total             1344                       # Number of bytes written to this memory
system.mem_ctrl.num_reads::.cpu.inst              233                       # Number of read requests responded to by this memory
system.mem_ctrl.num_reads::.cpu.data              114                       # Number of read requests responded to by this memory
system.mem_ctrl.num_reads::.cpu.dcache.prefetcher           35                       # Number of read requests responded to by this memory
system.mem_ctrl.num_reads::.l2cache.prefetcher            3                       # Number of read requests responded to by this memory
system.mem_ctrl.num_reads::total                  385                       # Number of read requests responded to by this memory
system.mem_ctrl.num_writes::.writebacks            21                       # Number of write requests responded to by this memory
system.mem_ctrl.num_writes::total                  21                       # Number of write requests responded to by this memory
system.mem_ctrl.bw_read::.cpu.inst          534158643                       # Total read bandwidth from this memory (bytes/s)
system.mem_ctrl.bw_read::.cpu.data          261348006                       # Total read bandwidth from this memory (bytes/s)
system.mem_ctrl.bw_read::.cpu.dcache.prefetcher     80238423                       # Total read bandwidth from this memory (bytes/s)
system.mem_ctrl.bw_read::.l2cache.prefetcher      6877579                       # Total read bandwidth from this memory (bytes/s)
system.mem_ctrl.bw_read::total              882622650                       # Total read bandwidth from this memory (bytes/s)
system.mem_ctrl.bw_inst_read::.cpu.inst     534158643                       # Instruction read bandwidth from this memory (bytes/s)
system.mem_ctrl.bw_inst_read::total         534158643                       # Instruction read bandwidth from this memory (bytes/s)
system.mem_ctrl.bw_write::.writebacks        48143054                       # Write bandwidth from this memory (bytes/s)
system.mem_ctrl.bw_write::total              48143054                       # Write bandwidth from this memory (bytes/s)
system.mem_ctrl.bw_total::.writebacks        48143054                       # Total bandwidth to/from this memory (bytes/s)
system.mem_ctrl.bw_total::.cpu.inst         534158643                       # Total bandwidth to/from this memory (bytes/s)
system.mem_ctrl.bw_total::.cpu.data         261348006                       # Total bandwidth to/from this memory (bytes/s)
system.mem_ctrl.bw_total::.cpu.dcache.prefetcher     80238423                       # Total bandwidth to/from this memory (bytes/s)
system.mem_ctrl.bw_total::.l2cache.prefetcher      6877579                       # Total bandwidth to/from this memory (bytes/s)
system.mem_ctrl.bw_total::total             930765704                       # Total bandwidth to/from this memory (bytes/s)

---------- End Simulation Statistics   ----------
