
---------- Begin Simulation Statistics ----------
final_tick                                 5849717200                       # Number of ticks from beginning of simulation (restored from checkpoints and never reset)
host_inst_rate                                  61062                       # Simulator instruction rate (inst/s)
host_mem_usage                                4416836                       # Number of bytes of host memory used
host_op_rate                                   116870                       # Simulator op (including micro ops) rate (op/s)
host_seconds                                    70.09                       # Real time elapsed on the host
host_tick_rate                               83456415                       # Simulator tick rate (ticks/s)
sim_freq                                 1000000000000                       # Frequency of simulated ticks
sim_insts                                     4280026                       # Number of instructions simulated
sim_ops                                       8191762                       # Number of ops (including micro ops) simulated
sim_seconds                                  0.005850                       # Number of seconds simulated
sim_ticks                                  5849717200                       # Number of ticks simulated
system.cpu.branchPred.BTBCorrect                    0                       # Number of correct BTB predictions (this stat may not work properly.
system.cpu.branchPred.BTBHitPct              0.000000                       # BTB Hit Percentage
system.cpu.branchPred.BTBHits                       0                       # Number of BTB hits
system.cpu.branchPred.BTBLookups              1330442                       # Number of BTB lookups
system.cpu.branchPred.RASInCorrect                  7                       # Number of incorrect RAS predictions.
system.cpu.branchPred.condIncorrect             34339                       # Number of conditional branches incorrect
system.cpu.branchPred.condPredicted           1361895                       # Number of conditional branches predicted
system.cpu.branchPred.indirectHits             952213                       # Number of indirect target hits.
system.cpu.branchPred.indirectLookups         1330442                       # Number of indirect predictor lookups.
system.cpu.branchPred.indirectMisses           378229                       # Number of indirect misses.
system.cpu.branchPred.lookups                 1434781                       # Number of BP lookups
system.cpu.branchPred.usedRAS                   33128                       # Number of times the RAS was used to get a target.
system.cpu.branchPredindirectMispredicted        18969                       # Number of mispredicted indirect branches.
system.cpu.cc_regfile_reads                   6843876                       # number of cc regfile reads
system.cpu.cc_regfile_writes                  6245176                       # number of cc regfile writes
system.cpu.commit.amos                              0                       # Number of atomic instructions committed
system.cpu.commit.branchMispredicts             34350                       # The number of times a branch was mispredicted
system.cpu.commit.branches                     784452                       # Number of branches committed
system.cpu.commit.bw_lim_events               1264013                       # number cycles where commit BW limit reached
system.cpu.commit.commitNonSpecStalls             916                       # The number of times commit has been forced to stall to communicate backwards
system.cpu.commit.commitSquashedInsts         9049896                       # The number of squashed insts skipped by commit
system.cpu.commit.committedInsts              4280026                       # Number of instructions committed
system.cpu.commit.committedOps                8191762                       # Number of ops (including micro ops) committed
system.cpu.commit.committed_per_cycle::samples     12005215                       # Number of insts commited each cycle
system.cpu.commit.committed_per_cycle::mean     0.682350                       # Number of insts commited each cycle
system.cpu.commit.committed_per_cycle::stdev     1.361241                       # Number of insts commited each cycle
system.cpu.commit.committed_per_cycle::underflows            0      0.00%      0.00% # Number of insts commited each cycle
system.cpu.commit.committed_per_cycle::0      9229747     76.88%     76.88% # Number of insts commited each cycle
system.cpu.commit.committed_per_cycle::1       500512      4.17%     81.05% # Number of insts commited each cycle
system.cpu.commit.committed_per_cycle::2       397631      3.31%     84.36% # Number of insts commited each cycle
system.cpu.commit.committed_per_cycle::3       613312      5.11%     89.47% # Number of insts commited each cycle
system.cpu.commit.committed_per_cycle::4      1264013     10.53%    100.00% # Number of insts commited each cycle
system.cpu.commit.committed_per_cycle::overflows            0      0.00%    100.00% # Number of insts commited each cycle
system.cpu.commit.committed_per_cycle::min_value            0                       # Number of insts commited each cycle
system.cpu.commit.committed_per_cycle::max_value            4                       # Number of insts commited each cycle
system.cpu.commit.committed_per_cycle::total     12005215                       # Number of insts commited each cycle
system.cpu.commit.fp_insts                     822640                       # Number of committed floating point instructions.
system.cpu.commit.function_calls                30540                       # Number of function calls committed.
system.cpu.commit.int_insts                   8008534                       # Number of committed integer instructions.
system.cpu.commit.loads                       1218900                       # Number of loads committed
system.cpu.commit.membars                          29                       # Number of memory barriers committed
system.cpu.commit.op_class_0::No_OpClass        43047      0.53%      0.53% # Class of committed instruction
system.cpu.commit.op_class_0::IntAlu          5909105     72.13%     72.66% # Class of committed instruction
system.cpu.commit.op_class_0::IntMult            1726      0.02%     72.68% # Class of committed instruction
system.cpu.commit.op_class_0::IntDiv            60008      0.73%     73.41% # Class of committed instruction
system.cpu.commit.op_class_0::FloatAdd           7629      0.09%     73.51% # Class of committed instruction
system.cpu.commit.op_class_0::FloatCmp              0      0.00%     73.51% # Class of committed instruction
system.cpu.commit.op_class_0::FloatCvt           1408      0.02%     73.52% # Class of committed instruction
system.cpu.commit.op_class_0::FloatMult             0      0.00%     73.52% # Class of committed instruction
system.cpu.commit.op_class_0::FloatMultAcc            0      0.00%     73.52% # Class of committed instruction
system.cpu.commit.op_class_0::FloatDiv              0      0.00%     73.52% # Class of committed instruction
system.cpu.commit.op_class_0::FloatMisc             0      0.00%     73.52% # Class of committed instruction
system.cpu.commit.op_class_0::FloatSqrt             0      0.00%     73.52% # Class of committed instruction
system.cpu.commit.op_class_0::SimdAdd           12888      0.16%     73.68% # Class of committed instruction
system.cpu.commit.op_class_0::SimdAddAcc            0      0.00%     73.68% # Class of committed instruction
system.cpu.commit.op_class_0::SimdAlu           65405      0.80%     74.48% # Class of committed instruction
system.cpu.commit.op_class_0::SimdCmp               0      0.00%     74.48% # Class of committed instruction
system.cpu.commit.op_class_0::SimdCvt           28700      0.35%     74.83% # Class of committed instruction
system.cpu.commit.op_class_0::SimdMisc          25930      0.32%     75.15% # Class of committed instruction
system.cpu.commit.op_class_0::SimdMult              0      0.00%     75.15% # Class of committed instruction
system.cpu.commit.op_class_0::SimdMultAcc            0      0.00%     75.15% # Class of committed instruction
system.cpu.commit.op_class_0::SimdShift          1358      0.02%     75.16% # Class of committed instruction
system.cpu.commit.op_class_0::SimdShiftAcc            0      0.00%     75.16% # Class of committed instruction
system.cpu.commit.op_class_0::SimdDiv               0      0.00%     75.16% # Class of committed instruction
system.cpu.commit.op_class_0::SimdSqrt              0      0.00%     75.16% # Class of committed instruction
system.cpu.commit.op_class_0::SimdFloatAdd          650      0.01%     75.17% # Class of committed instruction
system.cpu.commit.op_class_0::SimdFloatAlu            0      0.00%     75.17% # Class of committed instruction
system.cpu.commit.op_class_0::SimdFloatCmp            0      0.00%     75.17% # Class of committed instruction
system.cpu.commit.op_class_0::SimdFloatCvt         3920      0.05%     75.22% # Class of committed instruction
system.cpu.commit.op_class_0::SimdFloatDiv            0      0.00%     75.22% # Class of committed instruction
system.cpu.commit.op_class_0::SimdFloatMisc            0      0.00%     75.22% # Class of committed instruction
system.cpu.commit.op_class_0::SimdFloatMult            0      0.00%     75.22% # Class of committed instruction
system.cpu.commit.op_class_0::SimdFloatMultAcc            0      0.00%     75.22% # Class of committed instruction
system.cpu.commit.op_class_0::SimdFloatSqrt            0      0.00%     75.22% # Class of committed instruction
system.cpu.commit.op_class_0::SimdReduceAdd            0      0.00%     75.22% # Class of committed instruction
system.cpu.commit.op_class_0::SimdReduceAlu            0      0.00%     75.22% # Class of committed instruction
system.cpu.commit.op_class_0::SimdReduceCmp            0      0.00%     75.22% # Class of committed instruction
system.cpu.commit.op_class_0::SimdFloatReduceAdd            0      0.00%     75.22% # Class of committed instruction
system.cpu.commit.op_class_0::SimdFloatReduceCmp            0      0.00%     75.22% # Class of committed instruction
system.cpu.commit.op_class_0::SimdAes               0      0.00%     75.22% # Class of committed instruction
system.cpu.commit.op_class_0::SimdAesMix            0      0.00%     75.22% # Class of committed instruction
system.cpu.commit.op_class_0::SimdSha1Hash            0      0.00%     75.22% # Class of committed instruction
system.cpu.commit.op_class_0::SimdSha1Hash2            0      0.00%     75.22% # Class of committed instruction
system.cpu.commit.op_class_0::SimdSha256Hash            0      0.00%     75.22% # Class of committed instruction
system.cpu.commit.op_class_0::SimdSha256Hash2            0      0.00%     75.22% # Class of committed instruction
system.cpu.commit.op_class_0::SimdShaSigma2            0      0.00%     75.22% # Class of committed instruction
system.cpu.commit.op_class_0::SimdShaSigma3            0      0.00%     75.22% # Class of committed instruction
system.cpu.commit.op_class_0::SimdPredAlu            0      0.00%     75.22% # Class of committed instruction
system.cpu.commit.op_class_0::MemRead          875138     10.68%     85.90% # Class of committed instruction
system.cpu.commit.op_class_0::MemWrite         490305      5.99%     91.89% # Class of committed instruction
system.cpu.commit.op_class_0::FloatMemRead       343762      4.20%     96.08% # Class of committed instruction
system.cpu.commit.op_class_0::FloatMemWrite       320783      3.92%    100.00% # Class of committed instruction
system.cpu.commit.op_class_0::IprAccess             0      0.00%    100.00% # Class of committed instruction
system.cpu.commit.op_class_0::InstPrefetch            0      0.00%    100.00% # Class of committed instruction
system.cpu.commit.op_class_0::total           8191762                       # Class of committed instruction
system.cpu.commit.refs                        2029988                       # Number of memory references committed
system.cpu.commit.swp_count                         0                       # Number of s/w prefetches committed
system.cpu.commit.vec_insts                         0                       # Number of committed Vector instructions.
system.cpu.committedInsts                     4280026                       # Number of Instructions Simulated
system.cpu.committedOps                       8191762                       # Number of Ops (including micro ops) Simulated
system.cpu.cpi                               3.416870                       # CPI: Cycles Per Instruction
system.cpu.cpi_total                         3.416870                       # CPI: Total CPI of All Threads
system.cpu.dcache.prefetcher.num_hwpf_issued        28023                       # number of hwpf issued
system.cpu.dcache.prefetcher.pfBufferHit        34675                       # number of redundant prefetches already in prefetch queue
system.cpu.dcache.prefetcher.pfIdentified        70187                       # number of prefetch candidates identified
system.cpu.dcache.prefetcher.pfInCache              0                       # number of redundant prefetches already in cache/mshr dropped
system.cpu.dcache.prefetcher.pfRemovedFull            0                       # number of prefetches dropped due to prefetch queue size
system.cpu.dcache.prefetcher.pfSpanPage          4433                       # number of prefetches that crossed the page
system.cpu.decode.BlockedCycles               6393820                       # Number of cycles decode is blocked
system.cpu.decode.DecodedInsts               26013874                       # Number of instructions handled by decode
system.cpu.decode.IdleCycles                  1108158                       # Number of cycles decode is idle
system.cpu.decode.RunCycles                   6303407                       # Number of cycles decode is running
system.cpu.decode.SquashCycles                 186323                       # Number of cycles decode is squashing
system.cpu.decode.UnblockCycles                401307                       # Number of cycles decode is unblocking
system.cpu.dtb.rdAccesses                     5105601                       # TLB accesses on read requests
system.cpu.dtb.rdMisses                          2992                       # TLB misses on read requests
system.cpu.dtb.wrAccesses                     5422884                       # TLB accesses on write requests
system.cpu.dtb.wrMisses                           778                       # TLB misses on write requests
system.cpu.fetch.Branches                     1434781                       # Number of branches that fetch encountered
system.cpu.fetch.CacheLines                   1556030                       # Number of cache lines fetched
system.cpu.fetch.Cycles                      12391222                       # Number of cycles fetch has run and was not squashing or blocked
system.cpu.fetch.IcacheSquashes                  8067                       # Number of outstanding Icache misses that were squashed
system.cpu.fetch.IcacheWaitRetryStallCycles           43                       # Number of stall cycles due to full MSHR
system.cpu.fetch.Insts                       12423334                       # Number of instructions fetch has processed
system.cpu.fetch.MiscStallCycles                   38                       # Number of cycles fetch has spent waiting on interrupts, or bad addresses, or out of MSHRs
system.cpu.fetch.PendingQuiesceStallCycles            6                       # Number of stall cycles due to pending quiesce instructions
system.cpu.fetch.PendingTrapStallCycles           151                       # Number of stall cycles due to pending traps
system.cpu.fetch.SquashCycles                  372646                       # Number of cycles fetch has spent squashing
system.cpu.fetch.branchRate                  0.098109                       # Number of branch fetches per cycle
system.cpu.fetch.icacheStallCycles            1815232                       # Number of cycles fetch is stalled on an Icache miss
system.cpu.fetch.predictedBranches             985341                       # Number of branches that fetch has predicted taken
system.cpu.fetch.rate                        0.849500                       # Number of inst fetches per cycle
system.cpu.fetch.rateDist::samples           14393015                       # Number of instructions fetched each cycle (Total)
system.cpu.fetch.rateDist::mean              1.944911                       # Number of instructions fetched each cycle (Total)
system.cpu.fetch.rateDist::stdev             1.905813                       # Number of instructions fetched each cycle (Total)
system.cpu.fetch.rateDist::underflows               0      0.00%      0.00% # Number of instructions fetched each cycle (Total)
system.cpu.fetch.rateDist::0                  6722489     46.71%     46.71% # Number of instructions fetched each cycle (Total)
system.cpu.fetch.rateDist::1                   201794      1.40%     48.11% # Number of instructions fetched each cycle (Total)
system.cpu.fetch.rateDist::2                   802473      5.58%     53.68% # Number of instructions fetched each cycle (Total)
system.cpu.fetch.rateDist::3                   478636      3.33%     57.01% # Number of instructions fetched each cycle (Total)
system.cpu.fetch.rateDist::4                  6187623     42.99%    100.00% # Number of instructions fetched each cycle (Total)
system.cpu.fetch.rateDist::overflows                0      0.00%    100.00% # Number of instructions fetched each cycle (Total)
system.cpu.fetch.rateDist::min_value                0                       # Number of instructions fetched each cycle (Total)
system.cpu.fetch.rateDist::max_value                4                       # Number of instructions fetched each cycle (Total)
system.cpu.fetch.rateDist::total             14393015                       # Number of instructions fetched each cycle (Total)
system.cpu.fp_regfile_reads                   3704764                       # number of floating regfile reads
system.cpu.fp_regfile_writes                  3077590                       # number of floating regfile writes
system.cpu.fuPool.fu_ticks_busy::IntALU(0)    708851200                       # Total ticks fu was busy
system.cpu.fuPool.fu_ticks_busy::IntALU(1)    708851200                       # Total ticks fu was busy
system.cpu.fuPool.fu_ticks_busy::IntALU(2)    708851200                       # Total ticks fu was busy
system.cpu.fuPool.fu_ticks_busy::IntALU(3)    708851200                       # Total ticks fu was busy
system.cpu.fuPool.fu_ticks_busy::IntALU(4)    708850800                       # Total ticks fu was busy
system.cpu.fuPool.fu_ticks_busy::IntALU(5)    708850800                       # Total ticks fu was busy
system.cpu.fuPool.fu_ticks_busy::IntMultDiv(0)     13398000                       # Total ticks fu was busy
system.cpu.fuPool.fu_ticks_busy::IntMultDiv(1)     13397600                       # Total ticks fu was busy
system.cpu.fuPool.fu_ticks_busy::FP_ALU(0)      1119600                       # Total ticks fu was busy
system.cpu.fuPool.fu_ticks_busy::FP_ALU(1)      1119600                       # Total ticks fu was busy
system.cpu.fuPool.fu_ticks_busy::FP_ALU(2)      1119600                       # Total ticks fu was busy
system.cpu.fuPool.fu_ticks_busy::FP_ALU(3)      1119600                       # Total ticks fu was busy
system.cpu.fuPool.fu_ticks_busy::FP_MultDiv(0)            0                       # Total ticks fu was busy
system.cpu.fuPool.fu_ticks_busy::FP_MultDiv(1)            0                       # Total ticks fu was busy
system.cpu.fuPool.fu_ticks_busy::SIMD_Unit(0)     14993600                       # Total ticks fu was busy
system.cpu.fuPool.fu_ticks_busy::SIMD_Unit(1)     14781600                       # Total ticks fu was busy
system.cpu.fuPool.fu_ticks_busy::SIMD_Unit(2)     14720400                       # Total ticks fu was busy
system.cpu.fuPool.fu_ticks_busy::SIMD_Unit(3)     14937600                       # Total ticks fu was busy
system.cpu.fuPool.fu_ticks_busy::PredALU(0)            0                       # Total ticks fu was busy
system.cpu.fuPool.fu_ticks_busy::RdWrPort(0)   1140528000                       # Total ticks fu was busy
system.cpu.fuPool.fu_ticks_busy::RdWrPort(1)   1065764000                       # Total ticks fu was busy
system.cpu.fuPool.fu_ticks_busy::RdWrPort(2)   1155474800                       # Total ticks fu was busy
system.cpu.fuPool.fu_ticks_busy::RdWrPort(3)   1050760400                       # Total ticks fu was busy
system.cpu.fuPool.fu_ticks_busy::IprPort(0)            0                       # Total ticks fu was busy
system.cpu.fuPool.fu_ticks_busy::total     8756340800                       # Total ticks fu was busy
system.cpu.icache.prefetcher.num_hwpf_issued            0                       # number of hwpf issued
system.cpu.icache.prefetcher.pfBufferHit            0                       # number of redundant prefetches already in prefetch queue
system.cpu.icache.prefetcher.pfIdentified            0                       # number of prefetch candidates identified
system.cpu.icache.prefetcher.pfInCache              0                       # number of redundant prefetches already in cache/mshr dropped
system.cpu.icache.prefetcher.pfRemovedFull            0                       # number of prefetches dropped due to prefetch queue size
system.cpu.icache.prefetcher.pfSpanPage             0                       # number of prefetches that crossed the page
system.cpu.idleCycles                          231279                       # Total number of cycles that the CPU has spent unscheduled due to idling
system.cpu.iew.branchMispredicts                41678                       # Number of branch mispredicts detected at execute
system.cpu.iew.exec_branches                  1239404                       # Number of branches executed
system.cpu.iew.exec_nop                             0                       # number of nop insts executed
system.cpu.iew.exec_rate                     1.570952                       # Inst execution rate
system.cpu.iew.exec_refs                     10524580                       # number of memory reference insts executed
system.cpu.iew.exec_stores                    5422871                       # Number of stores executed
system.cpu.iew.exec_swp                             0                       # number of swp insts executed
system.cpu.iew.iewBlockCycles                 2702708                       # Number of cycles IEW is blocking
system.cpu.iew.iewDispLoadInsts               5512940                       # Number of dispatched load instructions
system.cpu.iew.iewDispNonSpecInsts               1121                       # Number of dispatched non-speculative instructions
system.cpu.iew.iewDispSquashedInsts               623                       # Number of squashed instructions skipped by dispatch
system.cpu.iew.iewDispStoreInsts              5627483                       # Number of dispatched store instructions
system.cpu.iew.iewDispatchedInsts            24179961                       # Number of instructions dispatched to IQ
system.cpu.iew.iewExecLoadInsts               5101709                       # Number of load instructions executed
system.cpu.iew.iewExecSquashedInsts            579500                       # Number of squashed instructions skipped in execute
system.cpu.iew.iewExecutedInsts              22974064                       # Number of executed instructions
system.cpu.iew.iewIQFullEvents                   3563                       # Number of times the IQ has become full, causing a stall
system.cpu.iew.iewIdleCycles                        0                       # Number of cycles IEW is idle
system.cpu.iew.iewLSQFullEvents                218378                       # Number of times the LSQ has become full, causing a stall
system.cpu.iew.iewSquashCycles                 186323                       # Number of cycles IEW is squashing
system.cpu.iew.iewUnblockCycles                206262                       # Number of cycles IEW is unblocking
system.cpu.iew.lsq.thread0.blockedLoads             0                       # Number of blocked loads due to partial load-store forwarding
system.cpu.iew.lsq.thread0.cacheBlocked           661                       # Number of times an access to memory failed due to the cache being blocked
system.cpu.iew.lsq.thread0.forwLoads            62372                       # Number of loads that had data forwarded from stores
system.cpu.iew.lsq.thread0.ignoredResponses          265                       # Number of memory responses ignored because the instruction is squashed
system.cpu.iew.lsq.thread0.invAddrLoads             0                       # Number of loads ignored due to an invalid address
system.cpu.iew.lsq.thread0.invAddrSwpfs             0                       # Number of software prefetches ignored due to an invalid address
system.cpu.iew.lsq.thread0.memOrderViolation          113                       # Number of memory ordering violations
system.cpu.iew.lsq.thread0.rescheduledLoads          247                       # Number of loads that were rescheduled
system.cpu.iew.lsq.thread0.squashedLoads      4294038                       # Number of loads squashed
system.cpu.iew.lsq.thread0.squashedStores      4816394                       # Number of stores squashed
system.cpu.iew.memOrderViolationEvents            113                       # Number of memory order violations
system.cpu.iew.predictedNotTakenIncorrect        30982                       # Number of branches that were predicted not taken incorrectly
system.cpu.iew.predictedTakenIncorrect          10696                       # Number of branches that were predicted taken incorrectly
system.cpu.iew.wb_consumers                  14901243                       # num instructions consuming a value
system.cpu.iew.wb_count                      20767184                       # cumulative count of insts written-back
system.cpu.iew.wb_fanout                     0.704789                       # average fanout of values written-back
system.cpu.iew.wb_producers                  10502234                       # num instructions producing a value
system.cpu.iew.wb_rate                       1.420047                       # insts written-back per cycle
system.cpu.iew.wb_sent                       22483632                       # cumulative count of insts sent to commit
system.cpu.int_regfile_reads                 34909538                       # number of integer regfile reads
system.cpu.int_regfile_writes                11273967                       # number of integer regfile writes
system.cpu.ipc                               0.292665                       # IPC: Instructions Per Cycle
system.cpu.ipc_total                         0.292665                       # IPC: Total IPC of All Threads
system.cpu.iq.FU_type_0::No_OpClass           1662712      7.06%      7.06% # Type of FU issued
system.cpu.iq.FU_type_0::IntAlu              10632767     45.14%     52.20% # Type of FU issued
system.cpu.iq.FU_type_0::IntMult                 1789      0.01%     52.21% # Type of FU issued
system.cpu.iq.FU_type_0::IntDiv                 65200      0.28%     52.49% # Type of FU issued
system.cpu.iq.FU_type_0::FloatAdd                9668      0.04%     52.53% # Type of FU issued
system.cpu.iq.FU_type_0::FloatCmp                   0      0.00%     52.53% # Type of FU issued
system.cpu.iq.FU_type_0::FloatCvt                1528      0.01%     52.53% # Type of FU issued
system.cpu.iq.FU_type_0::FloatMult                  0      0.00%     52.53% # Type of FU issued
system.cpu.iq.FU_type_0::FloatMultAcc               0      0.00%     52.53% # Type of FU issued
system.cpu.iq.FU_type_0::FloatDiv                   0      0.00%     52.53% # Type of FU issued
system.cpu.iq.FU_type_0::FloatMisc                  0      0.00%     52.53% # Type of FU issued
system.cpu.iq.FU_type_0::FloatSqrt                  0      0.00%     52.53% # Type of FU issued
system.cpu.iq.FU_type_0::SimdAdd                13709      0.06%     52.59% # Type of FU issued
system.cpu.iq.FU_type_0::SimdAddAcc                 0      0.00%     52.59% # Type of FU issued
system.cpu.iq.FU_type_0::SimdAlu                69889      0.30%     52.89% # Type of FU issued
system.cpu.iq.FU_type_0::SimdCmp                    0      0.00%     52.89% # Type of FU issued
system.cpu.iq.FU_type_0::SimdCvt                30882      0.13%     53.02% # Type of FU issued
system.cpu.iq.FU_type_0::SimdMisc               26669      0.11%     53.13% # Type of FU issued
system.cpu.iq.FU_type_0::SimdMult                   0      0.00%     53.13% # Type of FU issued
system.cpu.iq.FU_type_0::SimdMultAcc                0      0.00%     53.13% # Type of FU issued
system.cpu.iq.FU_type_0::SimdShift               2695      0.01%     53.14% # Type of FU issued
system.cpu.iq.FU_type_0::SimdShiftAcc               0      0.00%     53.14% # Type of FU issued
system.cpu.iq.FU_type_0::SimdDiv                    0      0.00%     53.14% # Type of FU issued
system.cpu.iq.FU_type_0::SimdSqrt                   0      0.00%     53.14% # Type of FU issued
system.cpu.iq.FU_type_0::SimdFloatAdd             650      0.00%     53.15% # Type of FU issued
system.cpu.iq.FU_type_0::SimdFloatAlu               0      0.00%     53.15% # Type of FU issued
system.cpu.iq.FU_type_0::SimdFloatCmp               0      0.00%     53.15% # Type of FU issued
system.cpu.iq.FU_type_0::SimdFloatCvt            4089      0.02%     53.16% # Type of FU issued
system.cpu.iq.FU_type_0::SimdFloatDiv               0      0.00%     53.16% # Type of FU issued
system.cpu.iq.FU_type_0::SimdFloatMisc              0      0.00%     53.16% # Type of FU issued
system.cpu.iq.FU_type_0::SimdFloatMult              0      0.00%     53.16% # Type of FU issued
system.cpu.iq.FU_type_0::SimdFloatMultAcc            0      0.00%     53.16% # Type of FU issued
system.cpu.iq.FU_type_0::SimdFloatSqrt              0      0.00%     53.16% # Type of FU issued
system.cpu.iq.FU_type_0::SimdReduceAdd              0      0.00%     53.16% # Type of FU issued
system.cpu.iq.FU_type_0::SimdReduceAlu              0      0.00%     53.16% # Type of FU issued
system.cpu.iq.FU_type_0::SimdReduceCmp              0      0.00%     53.16% # Type of FU issued
system.cpu.iq.FU_type_0::SimdFloatReduceAdd            0      0.00%     53.16% # Type of FU issued
system.cpu.iq.FU_type_0::SimdFloatReduceCmp            0      0.00%     53.16% # Type of FU issued
system.cpu.iq.FU_type_0::SimdAes                    0      0.00%     53.16% # Type of FU issued
system.cpu.iq.FU_type_0::SimdAesMix                 0      0.00%     53.16% # Type of FU issued
system.cpu.iq.FU_type_0::SimdSha1Hash               0      0.00%     53.16% # Type of FU issued
system.cpu.iq.FU_type_0::SimdSha1Hash2              0      0.00%     53.16% # Type of FU issued
system.cpu.iq.FU_type_0::SimdSha256Hash             0      0.00%     53.16% # Type of FU issued
system.cpu.iq.FU_type_0::SimdSha256Hash2            0      0.00%     53.16% # Type of FU issued
system.cpu.iq.FU_type_0::SimdShaSigma2              0      0.00%     53.16% # Type of FU issued
system.cpu.iq.FU_type_0::SimdShaSigma3              0      0.00%     53.16% # Type of FU issued
system.cpu.iq.FU_type_0::SimdPredAlu                0      0.00%     53.16% # Type of FU issued
system.cpu.iq.FU_type_0::MemRead              1806789      7.67%     60.84% # Type of FU issued
system.cpu.iq.FU_type_0::MemWrite             2107865      8.95%     69.79% # Type of FU issued
system.cpu.iq.FU_type_0::FloatMemRead         3683983     15.64%     85.43% # Type of FU issued
system.cpu.iq.FU_type_0::FloatMemWrite        3432683     14.57%    100.00% # Type of FU issued
system.cpu.iq.FU_type_0::IprAccess                  0      0.00%    100.00% # Type of FU issued
system.cpu.iq.FU_type_0::InstPrefetch               0      0.00%    100.00% # Type of FU issued
system.cpu.iq.FU_type_0::total               23553567                       # Type of FU issued
system.cpu.iq.fp_alu_accesses                 7286908                       # Number of floating point alu accesses
system.cpu.iq.fp_inst_queue_reads            14650484                       # Number of floating instruction queue reads
system.cpu.iq.fp_inst_queue_wakeup_accesses      6413891                       # Number of floating instruction queue wakeup accesses
system.cpu.iq.fp_inst_queue_writes           13932542                       # Number of floating instruction queue writes
system.cpu.iq.fu_busy_cnt                           0                       # FU busy when requested
system.cpu.iq.fu_busy_rate                          0                       # FU busy rate (busy events/executed inst)
system.cpu.iq.fu_full::No_OpClass                   0                       # attempts to use FU when none available
system.cpu.iq.fu_full::IntAlu                       0                       # attempts to use FU when none available
system.cpu.iq.fu_full::IntMult                      0                       # attempts to use FU when none available
system.cpu.iq.fu_full::IntDiv                       0                       # attempts to use FU when none available
system.cpu.iq.fu_full::FloatAdd                     0                       # attempts to use FU when none available
system.cpu.iq.fu_full::FloatCmp                     0                       # attempts to use FU when none available
system.cpu.iq.fu_full::FloatCvt                     0                       # attempts to use FU when none available
system.cpu.iq.fu_full::FloatMult                    0                       # attempts to use FU when none available
system.cpu.iq.fu_full::FloatMultAcc                 0                       # attempts to use FU when none available
system.cpu.iq.fu_full::FloatDiv                     0                       # attempts to use FU when none available
system.cpu.iq.fu_full::FloatMisc                    0                       # attempts to use FU when none available
system.cpu.iq.fu_full::FloatSqrt                    0                       # attempts to use FU when none available
system.cpu.iq.fu_full::SimdAdd                      0                       # attempts to use FU when none available
system.cpu.iq.fu_full::SimdAddAcc                   0                       # attempts to use FU when none available
system.cpu.iq.fu_full::SimdAlu                      0                       # attempts to use FU when none available
system.cpu.iq.fu_full::SimdCmp                      0                       # attempts to use FU when none available
system.cpu.iq.fu_full::SimdCvt                      0                       # attempts to use FU when none available
system.cpu.iq.fu_full::SimdMisc                     0                       # attempts to use FU when none available
system.cpu.iq.fu_full::SimdMult                     0                       # attempts to use FU when none available
system.cpu.iq.fu_full::SimdMultAcc                  0                       # attempts to use FU when none available
system.cpu.iq.fu_full::SimdShift                    0                       # attempts to use FU when none available
system.cpu.iq.fu_full::SimdShiftAcc                 0                       # attempts to use FU when none available
system.cpu.iq.fu_full::SimdDiv                      0                       # attempts to use FU when none available
system.cpu.iq.fu_full::SimdSqrt                     0                       # attempts to use FU when none available
system.cpu.iq.fu_full::SimdFloatAdd                 0                       # attempts to use FU when none available
system.cpu.iq.fu_full::SimdFloatAlu                 0                       # attempts to use FU when none available
system.cpu.iq.fu_full::SimdFloatCmp                 0                       # attempts to use FU when none available
system.cpu.iq.fu_full::SimdFloatCvt                 0                       # attempts to use FU when none available
system.cpu.iq.fu_full::SimdFloatDiv                 0                       # attempts to use FU when none available
system.cpu.iq.fu_full::SimdFloatMisc                0                       # attempts to use FU when none available
system.cpu.iq.fu_full::SimdFloatMult                0                       # attempts to use FU when none available
system.cpu.iq.fu_full::SimdFloatMultAcc             0                       # attempts to use FU when none available
system.cpu.iq.fu_full::SimdFloatSqrt                0                       # attempts to use FU when none available
system.cpu.iq.fu_full::SimdReduceAdd                0                       # attempts to use FU when none available
system.cpu.iq.fu_full::SimdReduceAlu                0                       # attempts to use FU when none available
system.cpu.iq.fu_full::SimdReduceCmp                0                       # attempts to use FU when none available
system.cpu.iq.fu_full::SimdFloatReduceAdd            0                       # attempts to use FU when none available
system.cpu.iq.fu_full::SimdFloatReduceCmp            0                       # attempts to use FU when none available
system.cpu.iq.fu_full::SimdAes                      0                       # attempts to use FU when none available
system.cpu.iq.fu_full::SimdAesMix                   0                       # attempts to use FU when none available
system.cpu.iq.fu_full::SimdSha1Hash                 0                       # attempts to use FU when none available
system.cpu.iq.fu_full::SimdSha1Hash2                0                       # attempts to use FU when none available
system.cpu.iq.fu_full::SimdSha256Hash               0                       # attempts to use FU when none available
system.cpu.iq.fu_full::SimdSha256Hash2              0                       # attempts to use FU when none available
system.cpu.iq.fu_full::SimdShaSigma2                0                       # attempts to use FU when none available
system.cpu.iq.fu_full::SimdShaSigma3                0                       # attempts to use FU when none available
system.cpu.iq.fu_full::SimdPredAlu                  0                       # attempts to use FU when none available
system.cpu.iq.fu_full::MemRead                      0                       # attempts to use FU when none available
system.cpu.iq.fu_full::MemWrite                     0                       # attempts to use FU when none available
system.cpu.iq.fu_full::FloatMemRead                 0                       # attempts to use FU when none available
system.cpu.iq.fu_full::FloatMemWrite                0                       # attempts to use FU when none available
system.cpu.iq.fu_full::IprAccess                    0                       # attempts to use FU when none available
system.cpu.iq.fu_full::InstPrefetch                 0                       # attempts to use FU when none available
system.cpu.iq.int_alu_accesses               14603947                       # Number of integer alu accesses
system.cpu.iq.int_inst_queue_reads           47039921                       # Number of integer instruction queue reads
system.cpu.iq.int_inst_queue_wakeup_accesses     14353293                       # Number of integer instruction queue wakeup accesses
system.cpu.iq.int_inst_queue_writes          26235720                       # Number of integer instruction queue writes
system.cpu.iq.iqInstsAdded                   24178437                       # Number of instructions added to the IQ (excludes non-spec)
system.cpu.iq.iqInstsIssued                  23553567                       # Number of instructions issued
system.cpu.iq.iqNonSpecInstsAdded                1524                       # Number of non-speculative instructions added to the IQ
system.cpu.iq.iqSquashedInstsExamined        15988188                       # Number of squashed instructions iterated over during squash; mainly for profiling
system.cpu.iq.iqSquashedInstsIssued            190259                       # Number of squashed instructions issued
system.cpu.iq.iqSquashedNonSpecRemoved            608                       # Number of squashed non-spec instructions that were removed
system.cpu.iq.iqSquashedOperandsExamined      5561246                       # Number of squashed operands that are examined and possibly removed from graph
system.cpu.iq.issued_per_cycle::samples      14393015                       # Number of insts issued each cycle
system.cpu.iq.issued_per_cycle::mean         1.636458                       # Number of insts issued each cycle
system.cpu.iq.issued_per_cycle::stdev        1.834896                       # Number of insts issued each cycle
system.cpu.iq.issued_per_cycle::underflows            0      0.00%      0.00% # Number of insts issued each cycle
system.cpu.iq.issued_per_cycle::0             7545659     52.43%     52.43% # Number of insts issued each cycle
system.cpu.iq.issued_per_cycle::1              505150      3.51%     55.94% # Number of insts issued each cycle
system.cpu.iq.issued_per_cycle::2              632914      4.40%     60.33% # Number of insts issued each cycle
system.cpu.iq.issued_per_cycle::3             1054579      7.33%     67.66% # Number of insts issued each cycle
system.cpu.iq.issued_per_cycle::4             4654713     32.34%    100.00% # Number of insts issued each cycle
system.cpu.iq.issued_per_cycle::overflows            0      0.00%    100.00% # Number of insts issued each cycle
system.cpu.iq.issued_per_cycle::min_value            0                       # Number of insts issued each cycle
system.cpu.iq.issued_per_cycle::max_value            4                       # Number of insts issued each cycle
system.cpu.iq.issued_per_cycle::total        14393015                       # Number of insts issued each cycle
system.cpu.iq.rate                           1.610578                       # Inst issue rate
system.cpu.iq.vec_alu_accesses                      0                       # Number of vector alu accesses
system.cpu.iq.vec_inst_queue_reads                  0                       # Number of vector instruction queue reads
system.cpu.iq.vec_inst_queue_wakeup_accesses            0                       # Number of vector instruction queue wakeup accesses
system.cpu.iq.vec_inst_queue_writes                 0                       # Number of vector instruction queue writes
system.cpu.itb.rdAccesses                           0                       # TLB accesses on read requests
system.cpu.itb.rdMisses                             0                       # TLB misses on read requests
system.cpu.itb.wrAccesses                     1556054                       # TLB accesses on write requests
system.cpu.itb.wrMisses                           310                       # TLB misses on write requests
system.cpu.memDep0.conflictingLoads             15996                       # Number of conflicting loads.
system.cpu.memDep0.conflictingStores            19378                       # Number of conflicting stores.
system.cpu.memDep0.insertedLoads              5512940                       # Number of loads inserted to the mem dependence unit.
system.cpu.memDep0.insertedStores             5627483                       # Number of stores inserted to the mem dependence unit.
system.cpu.misc_regfile_reads                13024736                       # number of misc regfile reads
system.cpu.misc_regfile_writes                    792                       # number of misc regfile writes
system.cpu.numCycles                         14624294                       # number of cpu cycles simulated
system.cpu.numWorkItemsCompleted                    0                       # number of work items this cpu completed
system.cpu.numWorkItemsStarted                      0                       # number of work items this cpu started
system.cpu.process.numSyscalls                     71                       # Number of system calls
system.cpu.rename.BlockCycles                 3054998                       # Number of cycles rename is blocking
system.cpu.rename.CommittedMaps               9805231                       # Number of HB maps that are committed
system.cpu.rename.FullRegisterEvents               68                       # Number of times there has been no free registers
system.cpu.rename.IQFullEvents                  46634                       # Number of times rename has blocked due to IQ full
system.cpu.rename.IdleCycles                  1336213                       # Number of cycles rename is idle
system.cpu.rename.LQFullEvents                  12314                       # Number of times rename has blocked due to LQ full
system.cpu.rename.ROBFullEvents                  5219                       # Number of times rename has blocked due to ROB full
system.cpu.rename.RenameLookups              63537985                       # Number of register rename lookups that rename has made
system.cpu.rename.RenamedInsts               24969883                       # Number of instructions processed by rename
system.cpu.rename.RenamedOperands            23118349                       # Number of destination operands rename has renamed
system.cpu.rename.RunCycles                   6352308                       # Number of cycles rename is running
system.cpu.rename.SQFullEvents                3360067                       # Number of times rename has blocked due to SQ full
system.cpu.rename.SquashCycles                 186323                       # Number of cycles rename is squashing
system.cpu.rename.UnblockCycles               3441928                       # Number of cycles rename is unblocking
system.cpu.rename.UndoneMaps                 13313095                       # Number of HB maps that are undone due to squashing
system.cpu.rename.fp_rename_lookups           4013554                       # Number of floating rename lookups
system.cpu.rename.int_rename_lookups         38096148                       # Number of integer rename lookups
system.cpu.rename.serializeStallCycles          21245                       # count of cycles rename stalled for serializing inst
system.cpu.rename.serializingInsts               1007                       # count of serializing insts renamed
system.cpu.rename.skidInsts                   1331751                       # count of insts added to the skid buffer
system.cpu.rename.tempSerializingInsts           1064                       # count of temporary serializing insts renamed
system.cpu.rob.rob_reads                     26008420                       # The number of ROB reads
system.cpu.rob.rob_writes                    36872278                       # The number of ROB writes
system.cpu.timesIdled                            6491                       # Number of times that the entire CPU went into an idle state and unscheduled itself
system.l2bus.snoop_filter.hit_multi_requests           19                       # Number of requests hitting in the snoop filter with multiple (>1) holders of the requested data.
system.l2bus.snoop_filter.hit_multi_snoops            2                       # Number of snoops hitting in the snoop filter with multiple (>1) holders of the requested data.
system.l2bus.snoop_filter.hit_single_requests       104012                       # Number of requests hitting in the snoop filter with a single holder of the requested data.
system.l2bus.snoop_filter.hit_single_snoops          779                       # Number of snoops hitting in the snoop filter with a single holder of the requested data.
system.l2bus.snoop_filter.tot_requests         209304                       # Total number of requests made to the snoop filter.
system.l2bus.snoop_filter.tot_snoops              781                       # Total number of snoops made to the snoop filter.
system.l2cache.prefetcher.num_hwpf_issued        22212                       # number of hwpf issued
system.l2cache.prefetcher.pfBufferHit               0                       # number of redundant prefetches already in prefetch queue
system.l2cache.prefetcher.pfIdentified          22213                       # number of prefetch candidates identified
system.l2cache.prefetcher.pfInCache                 0                       # number of redundant prefetches already in cache/mshr dropped
system.l2cache.prefetcher.pfRemovedFull             0                       # number of prefetches dropped due to prefetch queue size
system.l2cache.prefetcher.pfSpanPage             2415                       # number of prefetches that crossed the page
system.membus.snoop_filter.hit_multi_requests            0                       # Number of requests hitting in the snoop filter with multiple (>1) holders of the requested data.
system.membus.snoop_filter.hit_multi_snoops            0                       # Number of snoops hitting in the snoop filter with multiple (>1) holders of the requested data.
system.membus.snoop_filter.hit_single_requests        86806                       # Number of requests hitting in the snoop filter with a single holder of the requested data.
system.membus.snoop_filter.hit_single_snoops            0                       # Number of snoops hitting in the snoop filter with a single holder of the requested data.
system.membus.snoop_filter.tot_requests        177741                       # Total number of requests made to the snoop filter.
system.membus.snoop_filter.tot_snoops               0                       # Total number of snoops made to the snoop filter.
system.membus.pwrStateResidencyTicks::UNDEFINED   5849717200                       # Cumulative time (in ticks) in various power states
system.membus.trans_dist::ReadResp              70298                       # Transaction distribution
system.membus.trans_dist::WritebackDirty        38590                       # Transaction distribution
system.membus.trans_dist::CleanEvict            48214                       # Transaction distribution
system.membus.trans_dist::UpgradeReq                1                       # Transaction distribution
system.membus.trans_dist::ReadExReq             20638                       # Transaction distribution
system.membus.trans_dist::ReadExResp            20638                       # Transaction distribution
system.membus.trans_dist::ReadSharedReq         70298                       # Transaction distribution
system.membus.pkt_count_system.l2cache.mem_side::system.mem_ctrl.port       268677                       # Packet count per connected master and slave (bytes)
system.membus.pkt_count_system.l2cache.mem_side::total       268677                       # Packet count per connected master and slave (bytes)
system.membus.pkt_count::total                 268677                       # Packet count per connected master and slave (bytes)
system.membus.pkt_size_system.l2cache.mem_side::system.mem_ctrl.port      8289664                       # Cumulative packet size per connected master and slave (bytes)
system.membus.pkt_size_system.l2cache.mem_side::total      8289664                       # Cumulative packet size per connected master and slave (bytes)
system.membus.pkt_size::total                 8289664                       # Cumulative packet size per connected master and slave (bytes)
system.membus.snoops                                0                       # Total snoops (count)
system.membus.snoopTraffic                          0                       # Total snoop traffic (bytes)
system.membus.snoop_fanout::samples             90937                       # Request fanout histogram
system.membus.snoop_fanout::mean                    0                       # Request fanout histogram
system.membus.snoop_fanout::stdev                   0                       # Request fanout histogram
system.membus.snoop_fanout::underflows              0      0.00%      0.00% # Request fanout histogram
system.membus.snoop_fanout::0                   90937    100.00%    100.00% # Request fanout histogram
system.membus.snoop_fanout::1                       0      0.00%    100.00% # Request fanout histogram
system.membus.snoop_fanout::overflows               0      0.00%    100.00% # Request fanout histogram
system.membus.snoop_fanout::min_value               0                       # Request fanout histogram
system.membus.snoop_fanout::max_value               0                       # Request fanout histogram
system.membus.snoop_fanout::total               90937                       # Request fanout histogram
system.membus.reqLayer2.occupancy           134018034                       # Layer occupancy (ticks)
system.membus.reqLayer2.utilization               2.3                       # Layer utilization (%)
system.membus.respLayer0.occupancy          196212366                       # Layer occupancy (ticks)
system.membus.respLayer0.utilization              3.4                       # Layer utilization (%)
system.l2bus.pwrStateResidencyTicks::UNDEFINED   5849717200                       # Cumulative time (in ticks) in various power states
system.l2bus.trans_dist::ReadResp               83870                       # Transaction distribution
system.l2bus.trans_dist::WritebackDirty         79847                       # Transaction distribution
system.l2bus.trans_dist::CleanEvict            111114                       # Transaction distribution
system.l2bus.trans_dist::HardPFReq              33863                       # Transaction distribution
system.l2bus.trans_dist::UpgradeReq                 2                       # Transaction distribution
system.l2bus.trans_dist::UpgradeResp                2                       # Transaction distribution
system.l2bus.trans_dist::ReadExReq              21422                       # Transaction distribution
system.l2bus.trans_dist::ReadExResp             21422                       # Transaction distribution
system.l2bus.trans_dist::ReadSharedReq          83870                       # Transaction distribution
system.l2bus.pkt_count_system.cpu.icache.mem_side::system.l2cache.cpu_side        33265                       # Packet count per connected master and slave (bytes)
system.l2bus.pkt_count_system.cpu.dcache.mem_side::system.l2cache.cpu_side       281328                       # Packet count per connected master and slave (bytes)
system.l2bus.pkt_count::total                  314593                       # Packet count per connected master and slave (bytes)
system.l2bus.pkt_size_system.cpu.icache.mem_side::system.l2cache.cpu_side       714944                       # Cumulative packet size per connected master and slave (bytes)
system.l2bus.pkt_size_system.cpu.dcache.mem_side::system.l2cache.cpu_side      8663872                       # Cumulative packet size per connected master and slave (bytes)
system.l2bus.pkt_size::total                  9378816                       # Cumulative packet size per connected master and slave (bytes)
system.l2bus.snoops                            120819                       # Total snoops (count)
system.l2bus.snoopTraffic                     2470080                       # Total snoop traffic (bytes)
system.l2bus.snoop_fanout::samples             226108                       # Request fanout histogram
system.l2bus.snoop_fanout::mean              0.003556                       # Request fanout histogram
system.l2bus.snoop_fanout::stdev             0.059673                       # Request fanout histogram
system.l2bus.snoop_fanout::underflows               0      0.00%      0.00% # Request fanout histogram
system.l2bus.snoop_fanout::0                   225306     99.65%     99.65% # Request fanout histogram
system.l2bus.snoop_fanout::1                      800      0.35%    100.00% # Request fanout histogram
system.l2bus.snoop_fanout::2                        2      0.00%    100.00% # Request fanout histogram
system.l2bus.snoop_fanout::overflows                0      0.00%    100.00% # Request fanout histogram
system.l2bus.snoop_fanout::min_value                0                       # Request fanout histogram
system.l2bus.snoop_fanout::max_value                2                       # Request fanout histogram
system.l2bus.snoop_fanout::total               226108                       # Request fanout histogram
system.l2bus.respLayer1.occupancy           112941197                       # Layer occupancy (ticks)
system.l2bus.respLayer1.utilization               1.9                       # Layer utilization (%)
system.l2bus.reqLayer0.occupancy            125870743                       # Layer occupancy (ticks)
system.l2bus.reqLayer0.utilization                2.2                       # Layer utilization (%)
system.l2bus.respLayer0.occupancy            13411998                       # Layer occupancy (ticks)
system.l2bus.respLayer0.utilization               0.2                       # Layer utilization (%)
system.clk_domain.clock                           400                       # Clock period in ticks
system.clk_domain.voltage_domain.voltage            1                       # Voltage in Volts
system.cpu.pwrStateResidencyTicks::ON      5849717200                       # Cumulative time (in ticks) in various power states
system.cpu.icache.pwrStateResidencyTicks::UNDEFINED   5849717200                       # Cumulative time (in ticks) in various power states
system.cpu.icache.demand_hits::.cpu.inst      1543750                       # number of demand (read+write) hits
system.cpu.icache.demand_hits::total          1543750                       # number of demand (read+write) hits
system.cpu.icache.overall_hits::.cpu.inst      1543750                       # number of overall hits
system.cpu.icache.overall_hits::total         1543750                       # number of overall hits
system.cpu.icache.demand_misses::.cpu.inst        12279                       # number of demand (read+write) misses
system.cpu.icache.demand_misses::total          12279                       # number of demand (read+write) misses
system.cpu.icache.overall_misses::.cpu.inst        12279                       # number of overall misses
system.cpu.icache.overall_misses::total         12279                       # number of overall misses
system.cpu.icache.demand_miss_latency::.cpu.inst    310287199                       # number of demand (read+write) miss cycles
system.cpu.icache.demand_miss_latency::total    310287199                       # number of demand (read+write) miss cycles
system.cpu.icache.overall_miss_latency::.cpu.inst    310287199                       # number of overall miss cycles
system.cpu.icache.overall_miss_latency::total    310287199                       # number of overall miss cycles
system.cpu.icache.demand_accesses::.cpu.inst      1556029                       # number of demand (read+write) accesses
system.cpu.icache.demand_accesses::total      1556029                       # number of demand (read+write) accesses
system.cpu.icache.overall_accesses::.cpu.inst      1556029                       # number of overall (read+write) accesses
system.cpu.icache.overall_accesses::total      1556029                       # number of overall (read+write) accesses
system.cpu.icache.demand_miss_rate::.cpu.inst     0.007891                       # miss rate for demand accesses
system.cpu.icache.demand_miss_rate::total     0.007891                       # miss rate for demand accesses
system.cpu.icache.overall_miss_rate::.cpu.inst     0.007891                       # miss rate for overall accesses
system.cpu.icache.overall_miss_rate::total     0.007891                       # miss rate for overall accesses
system.cpu.icache.demand_avg_miss_latency::.cpu.inst 25269.745012                       # average overall miss latency
system.cpu.icache.demand_avg_miss_latency::total 25269.745012                       # average overall miss latency
system.cpu.icache.overall_avg_miss_latency::.cpu.inst 25269.745012                       # average overall miss latency
system.cpu.icache.overall_avg_miss_latency::total 25269.745012                       # average overall miss latency
system.cpu.icache.blocked_cycles::no_mshrs          527                       # number of cycles access was blocked
system.cpu.icache.blocked_cycles::no_targets            0                       # number of cycles access was blocked
system.cpu.icache.blocked::no_mshrs                11                       # number of cycles access was blocked
system.cpu.icache.blocked::no_targets               0                       # number of cycles access was blocked
system.cpu.icache.avg_blocked_cycles::no_mshrs    47.909091                       # average number of cycles each access was blocked
system.cpu.icache.avg_blocked_cycles::no_targets          nan                       # average number of cycles each access was blocked
system.cpu.icache.demand_mshr_hits::.cpu.inst         1103                       # number of demand (read+write) MSHR hits
system.cpu.icache.demand_mshr_hits::total         1103                       # number of demand (read+write) MSHR hits
system.cpu.icache.overall_mshr_hits::.cpu.inst         1103                       # number of overall MSHR hits
system.cpu.icache.overall_mshr_hits::total         1103                       # number of overall MSHR hits
system.cpu.icache.demand_mshr_misses::.cpu.inst        11176                       # number of demand (read+write) MSHR misses
system.cpu.icache.demand_mshr_misses::total        11176                       # number of demand (read+write) MSHR misses
system.cpu.icache.overall_mshr_misses::.cpu.inst        11176                       # number of overall MSHR misses
system.cpu.icache.overall_mshr_misses::total        11176                       # number of overall MSHR misses
system.cpu.icache.demand_mshr_miss_latency::.cpu.inst    260943999                       # number of demand (read+write) MSHR miss cycles
system.cpu.icache.demand_mshr_miss_latency::total    260943999                       # number of demand (read+write) MSHR miss cycles
system.cpu.icache.overall_mshr_miss_latency::.cpu.inst    260943999                       # number of overall MSHR miss cycles
system.cpu.icache.overall_mshr_miss_latency::total    260943999                       # number of overall MSHR miss cycles
system.cpu.icache.demand_mshr_miss_rate::.cpu.inst     0.007182                       # mshr miss rate for demand accesses
system.cpu.icache.demand_mshr_miss_rate::total     0.007182                       # mshr miss rate for demand accesses
system.cpu.icache.overall_mshr_miss_rate::.cpu.inst     0.007182                       # mshr miss rate for overall accesses
system.cpu.icache.overall_mshr_miss_rate::total     0.007182                       # mshr miss rate for overall accesses
system.cpu.icache.demand_avg_mshr_miss_latency::.cpu.inst 23348.604062                       # average overall mshr miss latency
system.cpu.icache.demand_avg_mshr_miss_latency::total 23348.604062                       # average overall mshr miss latency
system.cpu.icache.overall_avg_mshr_miss_latency::.cpu.inst 23348.604062                       # average overall mshr miss latency
system.cpu.icache.overall_avg_mshr_miss_latency::total 23348.604062                       # average overall mshr miss latency
system.cpu.icache.replacements                  10918                       # number of replacements
system.cpu.icache.ReadReq_hits::.cpu.inst      1543750                       # number of ReadReq hits
system.cpu.icache.ReadReq_hits::total         1543750                       # number of ReadReq hits
system.cpu.icache.ReadReq_misses::.cpu.inst        12279                       # number of ReadReq misses
system.cpu.icache.ReadReq_misses::total         12279                       # number of ReadReq misses
system.cpu.icache.ReadReq_miss_latency::.cpu.inst    310287199                       # number of ReadReq miss cycles
system.cpu.icache.ReadReq_miss_latency::total    310287199                       # number of ReadReq miss cycles
system.cpu.icache.ReadReq_accesses::.cpu.inst      1556029                       # number of ReadReq accesses(hits+misses)
system.cpu.icache.ReadReq_accesses::total      1556029                       # number of ReadReq accesses(hits+misses)
system.cpu.icache.ReadReq_miss_rate::.cpu.inst     0.007891                       # miss rate for ReadReq accesses
system.cpu.icache.ReadReq_miss_rate::total     0.007891                       # miss rate for ReadReq accesses
system.cpu.icache.ReadReq_avg_miss_latency::.cpu.inst 25269.745012                       # average ReadReq miss latency
system.cpu.icache.ReadReq_avg_miss_latency::total 25269.745012                       # average ReadReq miss latency
system.cpu.icache.ReadReq_mshr_hits::.cpu.inst         1103                       # number of ReadReq MSHR hits
system.cpu.icache.ReadReq_mshr_hits::total         1103                       # number of ReadReq MSHR hits
system.cpu.icache.ReadReq_mshr_misses::.cpu.inst        11176                       # number of ReadReq MSHR misses
system.cpu.icache.ReadReq_mshr_misses::total        11176                       # number of ReadReq MSHR misses
system.cpu.icache.ReadReq_mshr_miss_latency::.cpu.inst    260943999                       # number of ReadReq MSHR miss cycles
system.cpu.icache.ReadReq_mshr_miss_latency::total    260943999                       # number of ReadReq MSHR miss cycles
system.cpu.icache.ReadReq_mshr_miss_rate::.cpu.inst     0.007182                       # mshr miss rate for ReadReq accesses
system.cpu.icache.ReadReq_mshr_miss_rate::total     0.007182                       # mshr miss rate for ReadReq accesses
system.cpu.icache.ReadReq_avg_mshr_miss_latency::.cpu.inst 23348.604062                       # average ReadReq mshr miss latency
system.cpu.icache.ReadReq_avg_mshr_miss_latency::total 23348.604062                       # average ReadReq mshr miss latency
system.cpu.icache.prefetcher.pwrStateResidencyTicks::UNDEFINED   5849717200                       # Cumulative time (in ticks) in various power states
system.cpu.icache.tags.pwrStateResidencyTicks::UNDEFINED   5849717200                       # Cumulative time (in ticks) in various power states
system.cpu.icache.tags.tagsinuse           254.814328                       # Cycle average of tags in use
system.cpu.icache.tags.total_refs             1456539                       # Total number of references to valid blocks.
system.cpu.icache.tags.sampled_refs             10920                       # Sample count of references to valid blocks.
system.cpu.icache.tags.avg_refs            133.382692                       # Average number of references to valid blocks.
system.cpu.icache.tags.warmup_cycle             66400                       # Cycle when the warmup percentage was hit.
system.cpu.icache.tags.occ_blocks::.cpu.inst   254.814328                       # Average occupied blocks per requestor
system.cpu.icache.tags.occ_percent::.cpu.inst     0.995368                       # Average percentage of cache occupancy
system.cpu.icache.tags.occ_percent::total     0.995368                       # Average percentage of cache occupancy
system.cpu.icache.tags.occ_task_id_blocks::1024          256                       # Occupied blocks per task id
system.cpu.icache.tags.age_task_id_blocks_1024::0          108                       # Occupied blocks per task id
system.cpu.icache.tags.age_task_id_blocks_1024::1           12                       # Occupied blocks per task id
system.cpu.icache.tags.age_task_id_blocks_1024::2          103                       # Occupied blocks per task id
system.cpu.icache.tags.age_task_id_blocks_1024::3           33                       # Occupied blocks per task id
system.cpu.icache.tags.occ_task_id_percent::1024            1                       # Percentage of cache occupancy per task id
system.cpu.icache.tags.tag_accesses           3123234                       # Number of tag accesses
system.cpu.icache.tags.data_accesses          3123234                       # Number of data accesses
system.cpu.dtb.walker.pwrStateResidencyTicks::UNDEFINED   5849717200                       # Cumulative time (in ticks) in various power states
system.cpu.interrupts.clk_domain.clock           6400                       # Clock period in ticks
system.cpu.itb.walker.pwrStateResidencyTicks::UNDEFINED   5849717200                       # Cumulative time (in ticks) in various power states
system.cpu.dcache.pwrStateResidencyTicks::UNDEFINED   5849717200                       # Cumulative time (in ticks) in various power states
system.cpu.dcache.demand_hits::.cpu.data      4887835                       # number of demand (read+write) hits
system.cpu.dcache.demand_hits::total          4887835                       # number of demand (read+write) hits
system.cpu.dcache.overall_hits::.cpu.data      5659134                       # number of overall hits
system.cpu.dcache.overall_hits::total         5659134                       # number of overall hits
system.cpu.dcache.demand_misses::.cpu.data        56055                       # number of demand (read+write) misses
system.cpu.dcache.demand_misses::total          56055                       # number of demand (read+write) misses
system.cpu.dcache.overall_misses::.cpu.data       193486                       # number of overall misses
system.cpu.dcache.overall_misses::total        193486                       # number of overall misses
system.cpu.dcache.demand_miss_latency::.cpu.data   3176027199                       # number of demand (read+write) miss cycles
system.cpu.dcache.demand_miss_latency::total   3176027199                       # number of demand (read+write) miss cycles
system.cpu.dcache.overall_miss_latency::.cpu.data   3176027199                       # number of overall miss cycles
system.cpu.dcache.overall_miss_latency::total   3176027199                       # number of overall miss cycles
system.cpu.dcache.demand_accesses::.cpu.data      4943890                       # number of demand (read+write) accesses
system.cpu.dcache.demand_accesses::total      4943890                       # number of demand (read+write) accesses
system.cpu.dcache.overall_accesses::.cpu.data      5852620                       # number of overall (read+write) accesses
system.cpu.dcache.overall_accesses::total      5852620                       # number of overall (read+write) accesses
system.cpu.dcache.demand_miss_rate::.cpu.data     0.011338                       # miss rate for demand accesses
system.cpu.dcache.demand_miss_rate::total     0.011338                       # miss rate for demand accesses
system.cpu.dcache.overall_miss_rate::.cpu.data     0.033060                       # miss rate for overall accesses
system.cpu.dcache.overall_miss_rate::total     0.033060                       # miss rate for overall accesses
system.cpu.dcache.demand_avg_miss_latency::.cpu.data 56659.124057                       # average overall miss latency
system.cpu.dcache.demand_avg_miss_latency::total 56659.124057                       # average overall miss latency
system.cpu.dcache.overall_avg_miss_latency::.cpu.data 16414.764887                       # average overall miss latency
system.cpu.dcache.overall_avg_miss_latency::total 16414.764887                       # average overall miss latency
system.cpu.dcache.blocked_cycles::no_mshrs        32953                       # number of cycles access was blocked
system.cpu.dcache.blocked_cycles::no_targets          420                       # number of cycles access was blocked
system.cpu.dcache.blocked::no_mshrs               809                       # number of cycles access was blocked
system.cpu.dcache.blocked::no_targets               3                       # number of cycles access was blocked
system.cpu.dcache.avg_blocked_cycles::no_mshrs    40.733004                       # average number of cycles each access was blocked
system.cpu.dcache.avg_blocked_cycles::no_targets          140                       # average number of cycles each access was blocked
system.cpu.dcache.unused_prefetches              1847                       # number of HardPF blocks evicted w/o reference
system.cpu.dcache.writebacks::.writebacks        41257                       # number of writebacks
system.cpu.dcache.writebacks::total             41257                       # number of writebacks
system.cpu.dcache.demand_mshr_hits::.cpu.data        23378                       # number of demand (read+write) MSHR hits
system.cpu.dcache.demand_mshr_hits::total        23378                       # number of demand (read+write) MSHR hits
system.cpu.dcache.overall_mshr_hits::.cpu.data        23378                       # number of overall MSHR hits
system.cpu.dcache.overall_mshr_hits::total        23378                       # number of overall MSHR hits
system.cpu.dcache.demand_mshr_misses::.cpu.data        32677                       # number of demand (read+write) MSHR misses
system.cpu.dcache.demand_mshr_misses::total        32677                       # number of demand (read+write) MSHR misses
system.cpu.dcache.overall_mshr_misses::.cpu.data        70258                       # number of overall MSHR misses
system.cpu.dcache.overall_mshr_misses::.cpu.dcache.prefetcher        23860                       # number of overall MSHR misses
system.cpu.dcache.overall_mshr_misses::total        94118                       # number of overall MSHR misses
system.cpu.dcache.demand_mshr_miss_latency::.cpu.data   1984959999                       # number of demand (read+write) MSHR miss cycles
system.cpu.dcache.demand_mshr_miss_latency::total   1984959999                       # number of demand (read+write) MSHR miss cycles
system.cpu.dcache.overall_mshr_miss_latency::.cpu.data   4402869999                       # number of overall MSHR miss cycles
system.cpu.dcache.overall_mshr_miss_latency::.cpu.dcache.prefetcher    489377818                       # number of overall MSHR miss cycles
system.cpu.dcache.overall_mshr_miss_latency::total   4892247817                       # number of overall MSHR miss cycles
system.cpu.dcache.demand_mshr_miss_rate::.cpu.data     0.006610                       # mshr miss rate for demand accesses
system.cpu.dcache.demand_mshr_miss_rate::total     0.006610                       # mshr miss rate for demand accesses
system.cpu.dcache.overall_mshr_miss_rate::.cpu.data     0.012005                       # mshr miss rate for overall accesses
system.cpu.dcache.overall_mshr_miss_rate::.cpu.dcache.prefetcher          inf                       # mshr miss rate for overall accesses
system.cpu.dcache.overall_mshr_miss_rate::total     0.016081                       # mshr miss rate for overall accesses
system.cpu.dcache.demand_avg_mshr_miss_latency::.cpu.data 60744.866389                       # average overall mshr miss latency
system.cpu.dcache.demand_avg_mshr_miss_latency::total 60744.866389                       # average overall mshr miss latency
system.cpu.dcache.overall_avg_mshr_miss_latency::.cpu.data 62667.169561                       # average overall mshr miss latency
system.cpu.dcache.overall_avg_mshr_miss_latency::.cpu.dcache.prefetcher 20510.386337                       # average overall mshr miss latency
system.cpu.dcache.overall_avg_mshr_miss_latency::total 51979.938131                       # average overall mshr miss latency
system.cpu.dcache.replacements                  93092                       # number of replacements
system.cpu.dcache.ReadReq_hits::.cpu.data      4098209                       # number of ReadReq hits
system.cpu.dcache.ReadReq_hits::total         4098209                       # number of ReadReq hits
system.cpu.dcache.ReadReq_misses::.cpu.data        34585                       # number of ReadReq misses
system.cpu.dcache.ReadReq_misses::total         34585                       # number of ReadReq misses
system.cpu.dcache.ReadReq_miss_latency::.cpu.data   1683101600                       # number of ReadReq miss cycles
system.cpu.dcache.ReadReq_miss_latency::total   1683101600                       # number of ReadReq miss cycles
system.cpu.dcache.ReadReq_accesses::.cpu.data      4132794                       # number of ReadReq accesses(hits+misses)
system.cpu.dcache.ReadReq_accesses::total      4132794                       # number of ReadReq accesses(hits+misses)
system.cpu.dcache.ReadReq_miss_rate::.cpu.data     0.008368                       # miss rate for ReadReq accesses
system.cpu.dcache.ReadReq_miss_rate::total     0.008368                       # miss rate for ReadReq accesses
system.cpu.dcache.ReadReq_avg_miss_latency::.cpu.data 48665.652740                       # average ReadReq miss latency
system.cpu.dcache.ReadReq_avg_miss_latency::total 48665.652740                       # average ReadReq miss latency
system.cpu.dcache.ReadReq_mshr_hits::.cpu.data        23331                       # number of ReadReq MSHR hits
system.cpu.dcache.ReadReq_mshr_hits::total        23331                       # number of ReadReq MSHR hits
system.cpu.dcache.ReadReq_mshr_misses::.cpu.data        11254                       # number of ReadReq MSHR misses
system.cpu.dcache.ReadReq_mshr_misses::total        11254                       # number of ReadReq MSHR misses
system.cpu.dcache.ReadReq_mshr_miss_latency::.cpu.data    511112000                       # number of ReadReq MSHR miss cycles
system.cpu.dcache.ReadReq_mshr_miss_latency::total    511112000                       # number of ReadReq MSHR miss cycles
system.cpu.dcache.ReadReq_mshr_miss_rate::.cpu.data     0.002723                       # mshr miss rate for ReadReq accesses
system.cpu.dcache.ReadReq_mshr_miss_rate::total     0.002723                       # mshr miss rate for ReadReq accesses
system.cpu.dcache.ReadReq_avg_mshr_miss_latency::.cpu.data 45416.029856                       # average ReadReq mshr miss latency
system.cpu.dcache.ReadReq_avg_mshr_miss_latency::total 45416.029856                       # average ReadReq mshr miss latency
system.cpu.dcache.WriteReq_hits::.cpu.data       789626                       # number of WriteReq hits
system.cpu.dcache.WriteReq_hits::total         789626                       # number of WriteReq hits
system.cpu.dcache.WriteReq_misses::.cpu.data        21470                       # number of WriteReq misses
system.cpu.dcache.WriteReq_misses::total        21470                       # number of WriteReq misses
system.cpu.dcache.WriteReq_miss_latency::.cpu.data   1492925599                       # number of WriteReq miss cycles
system.cpu.dcache.WriteReq_miss_latency::total   1492925599                       # number of WriteReq miss cycles
system.cpu.dcache.WriteReq_accesses::.cpu.data       811096                       # number of WriteReq accesses(hits+misses)
system.cpu.dcache.WriteReq_accesses::total       811096                       # number of WriteReq accesses(hits+misses)
system.cpu.dcache.WriteReq_miss_rate::.cpu.data     0.026470                       # miss rate for WriteReq accesses
system.cpu.dcache.WriteReq_miss_rate::total     0.026470                       # miss rate for WriteReq accesses
system.cpu.dcache.WriteReq_avg_miss_latency::.cpu.data 69535.426129                       # average WriteReq miss latency
system.cpu.dcache.WriteReq_avg_miss_latency::total 69535.426129                       # average WriteReq miss latency
system.cpu.dcache.WriteReq_mshr_hits::.cpu.data           47                       # number of WriteReq MSHR hits
[...]
system.l2cache.overall_mshr_miss_latency::total     88852136                       # number of overall MSHR miss cycles
system.l2cache.demand_mshr_miss_rate::.cpu.inst     0.811133                       # mshr miss rate for demand accesses
system.l2cache.demand_mshr_miss_rate::.cpu.data     0.858131                       # mshr miss rate for demand accesses
system.l2cache.demand_mshr_miss_rate::.cpu.dcache.prefetcher     0.233677                       # mshr miss rate for demand accesses
system.l2cache.demand_mshr_miss_rate::total     0.734497                       # mshr miss rate for demand accesses
system.l2cache.overall_mshr_miss_rate::.cpu.inst     0.811133                       # mshr miss rate for overall accesses
system.l2cache.overall_mshr_miss_rate::.cpu.data     0.858131                       # mshr miss rate for overall accesses
system.l2cache.overall_mshr_miss_rate::.cpu.dcache.prefetcher     0.233677                       # mshr miss rate for overall accesses
system.l2cache.overall_mshr_miss_rate::.l2cache.prefetcher          inf                       # mshr miss rate for overall accesses
system.l2cache.overall_mshr_miss_rate::total     0.871162                       # mshr miss rate for overall accesses
system.l2cache.demand_avg_mshr_miss_latency::.cpu.inst 59943.137255                       # average overall mshr miss latency
system.l2cache.demand_avg_mshr_miss_latency::.cpu.data 61935.483871                       # average overall mshr miss latency
system.l2cache.demand_avg_mshr_miss_latency::.cpu.dcache.prefetcher 64869.691176                       # average overall mshr miss latency
system.l2cache.demand_avg_mshr_miss_latency::total 61432.736885                       # average overall mshr miss latency
system.l2cache.overall_avg_mshr_miss_latency::.cpu.inst 59943.137255                       # average overall mshr miss latency
system.l2cache.overall_avg_mshr_miss_latency::.cpu.data 61935.483871                       # average overall mshr miss latency
system.l2cache.overall_avg_mshr_miss_latency::.cpu.dcache.prefetcher 64869.691176                       # average overall mshr miss latency
system.l2cache.overall_avg_mshr_miss_latency::.l2cache.prefetcher 61251.969163                       # average overall mshr miss latency
system.l2cache.overall_avg_mshr_miss_latency::total 61404.378715                       # average overall mshr miss latency
system.l2cache.replacements                      1622                       # number of replacements
system.l2cache.WritebackDirty_hits::.writebacks          385                       # number of WritebackDirty hits
system.l2cache.WritebackDirty_hits::total          385                       # number of WritebackDirty hits
system.l2cache.WritebackDirty_accesses::.writebacks          385                       # number of WritebackDirty accesses(hits+misses)
system.l2cache.WritebackDirty_accesses::total          385                       # number of WritebackDirty accesses(hits+misses)
system.l2cache.CleanEvict_mshr_misses::.writebacks           98                       # number of CleanEvict MSHR misses
system.l2cache.CleanEvict_mshr_misses::total           98                       # number of CleanEvict MSHR misses
system.l2cache.CleanEvict_mshr_miss_rate::.writebacks          inf                       # mshr miss rate for CleanEvict accesses
system.l2cache.CleanEvict_mshr_miss_rate::total          inf                       # mshr miss rate for CleanEvict accesses
system.l2cache.HardPFReq_mshr_misses::.l2cache.prefetcher          227                       # number of HardPFReq MSHR misses
system.l2cache.HardPFReq_mshr_misses::total          227                       # number of HardPFReq MSHR misses
system.l2cache.HardPFReq_mshr_miss_latency::.l2cache.prefetcher     13904197                       # number of HardPFReq MSHR miss cycles
system.l2cache.HardPFReq_mshr_miss_latency::total     13904197                       # number of HardPFReq MSHR miss cycles
system.l2cache.HardPFReq_mshr_miss_rate::.l2cache.prefetcher          inf                       # mshr miss rate for HardPFReq accesses
system.l2cache.HardPFReq_mshr_miss_rate::total          inf                       # mshr miss rate for HardPFReq accesses
system.l2cache.HardPFReq_avg_mshr_miss_latency::.l2cache.prefetcher 61251.969163                       # average HardPFReq mshr miss latency
system.l2cache.HardPFReq_avg_mshr_miss_latency::total 61251.969163                       # average HardPFReq mshr miss latency
system.l2cache.ReadExReq_hits::.cpu.data           16                       # number of ReadExReq hits
system.l2cache.ReadExReq_hits::total               16                       # number of ReadExReq hits
system.l2cache.ReadExReq_misses::.cpu.data           27                       # number of ReadExReq misses
system.l2cache.ReadExReq_misses::total             27                       # number of ReadExReq misses
system.l2cache.ReadExReq_miss_latency::.cpu.data      1950000                       # number of ReadExReq miss cycles
system.l2cache.ReadExReq_miss_latency::total      1950000                       # number of ReadExReq miss cycles
system.l2cache.ReadExReq_accesses::.cpu.data           43                       # number of ReadExReq accesses(hits+misses)
system.l2cache.ReadExReq_accesses::total           43                       # number of ReadExReq accesses(hits+misses)
system.l2cache.ReadExReq_miss_rate::.cpu.data     0.627907                       # miss rate for ReadExReq accesses
system.l2cache.ReadExReq_miss_rate::total     0.627907                       # miss rate for ReadExReq accesses
system.l2cache.ReadExReq_avg_miss_latency::.cpu.data 72222.222222                       # average ReadExReq miss latency
system.l2cache.ReadExReq_avg_miss_latency::total 72222.222222                       # average ReadExReq miss latency
system.l2cache.ReadExReq_mshr_misses::.cpu.data           27                       # number of ReadExReq MSHR misses
system.l2cache.ReadExReq_mshr_misses::total           27                       # number of ReadExReq MSHR misses
system.l2cache.ReadExReq_mshr_miss_latency::.cpu.data      1734000                       # number of ReadExReq MSHR miss cycles
system.l2cache.ReadExReq_mshr_miss_latency::total      1734000                       # number of ReadExReq MSHR miss cycles
system.l2cache.ReadExReq_mshr_miss_rate::.cpu.data     0.627907                       # mshr miss rate for ReadExReq accesses
system.l2cache.ReadExReq_mshr_miss_rate::total     0.627907                       # mshr miss rate for ReadExReq accesses
system.l2cache.ReadExReq_avg_mshr_miss_latency::.cpu.data 64222.222222                       # average ReadExReq mshr miss latency
system.l2cache.ReadExReq_avg_mshr_miss_latency::total 64222.222222                       # average ReadExReq mshr miss latency
system.l2cache.ReadSharedReq_hits::.cpu.inst           95                       # number of ReadSharedReq hits
system.l2cache.ReadSharedReq_hits::.cpu.data          107                       # number of ReadSharedReq hits
system.l2cache.ReadSharedReq_hits::.cpu.dcache.prefetcher          166                       # number of ReadSharedReq hits
system.l2cache.ReadSharedReq_hits::total          368                       # number of ReadSharedReq hits
system.l2cache.ReadSharedReq_misses::.cpu.inst          408                       # number of ReadSharedReq misses
system.l2cache.ReadSharedReq_misses::.cpu.data          717                       # number of ReadSharedReq misses
system.l2cache.ReadSharedReq_misses::.cpu.dcache.prefetcher          125                       # number of ReadSharedReq misses
system.l2cache.ReadSharedReq_misses::total         1250                       # number of ReadSharedReq misses
system.l2cache.ReadSharedReq_miss_latency::.cpu.inst     27712800                       # number of ReadSharedReq miss cycles
system.l2cache.ReadSharedReq_miss_latency::.cpu.data     50082000                       # number of ReadSharedReq miss cycles
system.l2cache.ReadSharedReq_miss_latency::.cpu.dcache.prefetcher      7591915                       # number of ReadSharedReq miss cycles
system.l2cache.ReadSharedReq_miss_latency::total     85386715                       # number of ReadSharedReq miss cycles
system.l2cache.ReadSharedReq_accesses::.cpu.inst          503                       # number of ReadSharedReq accesses(hits+misses)
system.l2cache.ReadSharedReq_accesses::.cpu.data          824                       # number of ReadSharedReq accesses(hits+misses)
system.l2cache.ReadSharedReq_accesses::.cpu.dcache.prefetcher          291                       # number of ReadSharedReq accesses(hits+misses)
system.l2cache.ReadSharedReq_accesses::total         1618                       # number of ReadSharedReq accesses(hits+misses)
system.l2cache.ReadSharedReq_miss_rate::.cpu.inst     0.811133                       # miss rate for ReadSharedReq accesses
system.l2cache.ReadSharedReq_miss_rate::.cpu.data     0.870146                       # miss rate for ReadSharedReq accesses
system.l2cache.ReadSharedReq_miss_rate::.cpu.dcache.prefetcher     0.429553                       # miss rate for ReadSharedReq accesses
system.l2cache.ReadSharedReq_miss_rate::total     0.772559                       # miss rate for ReadSharedReq accesses
system.l2cache.ReadSharedReq_avg_miss_latency::.cpu.inst 67923.529412                       # average ReadSharedReq miss latency
system.l2cache.ReadSharedReq_avg_miss_latency::.cpu.data 69849.372385                       # average ReadSharedReq miss latency
system.l2cache.ReadSharedReq_avg_miss_latency::.cpu.dcache.prefetcher 60735.320000                       # average ReadSharedReq miss latency
system.l2cache.ReadSharedReq_avg_miss_latency::total 68309.372000                       # average ReadSharedReq miss latency
system.l2cache.ReadSharedReq_mshr_hits::.cpu.dcache.prefetcher           57                       # number of ReadSharedReq MSHR hits
system.l2cache.ReadSharedReq_mshr_hits::total           57                       # number of ReadSharedReq MSHR hits
system.l2cache.ReadSharedReq_mshr_misses::.cpu.inst          408                       # number of ReadSharedReq MSHR misses
system.l2cache.ReadSharedReq_mshr_misses::.cpu.data          717                       # number of ReadSharedReq MSHR misses
system.l2cache.ReadSharedReq_mshr_misses::.cpu.dcache.prefetcher           68                       # number of ReadSharedReq MSHR misses
system.l2cache.ReadSharedReq_mshr_misses::total         1193                       # number of ReadSharedReq MSHR misses
system.l2cache.ReadSharedReq_mshr_miss_latency::.cpu.inst     24456800                       # number of ReadSharedReq MSHR miss cycles
system.l2cache.ReadSharedReq_mshr_miss_latency::.cpu.data     44346000                       # number of ReadSharedReq MSHR miss cycles
system.l2cache.ReadSharedReq_mshr_miss_latency::.cpu.dcache.prefetcher      4411139                       # number of ReadSharedReq MSHR miss cycles
system.l2cache.ReadSharedReq_mshr_miss_latency::total     73213939                       # number of ReadSharedReq MSHR miss cycles
system.l2cache.ReadSharedReq_mshr_miss_rate::.cpu.inst     0.811133                       # mshr miss rate for ReadSharedReq accesses
system.l2cache.ReadSharedReq_mshr_miss_rate::.cpu.data     0.870146                       # mshr miss rate for ReadSharedReq accesses
system.l2cache.ReadSharedReq_mshr_miss_rate::.cpu.dcache.prefetcher     0.233677                       # mshr miss rate for ReadSharedReq accesses
system.l2cache.ReadSharedReq_mshr_miss_rate::total     0.737330                       # mshr miss rate for ReadSharedReq accesses
system.l2cache.ReadSharedReq_avg_mshr_miss_latency::.cpu.inst 59943.137255                       # average ReadSharedReq mshr miss latency
system.l2cache.ReadSharedReq_avg_mshr_miss_latency::.cpu.data 61849.372385                       # average ReadSharedReq mshr miss latency
system.l2cache.ReadSharedReq_avg_mshr_miss_latency::.cpu.dcache.prefetcher 64869.691176                       # average ReadSharedReq mshr miss latency
system.l2cache.ReadSharedReq_avg_mshr_miss_latency::total 61369.605197                       # average ReadSharedReq mshr miss latency
system.l2cache.prefetcher.pwrStateResidencyTicks::UNDEFINED     92137200                       # Cumulative time (in ticks) in various power states
system.l2cache.tags.pwrStateResidencyTicks::UNDEFINED     92137200                       # Cumulative time (in ticks) in various power states
system.l2cache.tags.tagsinuse                    4096                       # Cycle average of tags in use
system.l2cache.tags.total_refs                  11133                       # Total number of references to valid blocks.
system.l2cache.tags.sampled_refs                 5718                       # Sample count of references to valid blocks.
system.l2cache.tags.avg_refs                 1.947009                       # Average number of references to valid blocks.
system.l2cache.tags.warmup_cycle                    0                       # Cycle when the warmup percentage was hit.
system.l2cache.tags.occ_blocks::.writebacks   130.257630                       # Average occupied blocks per requestor
system.l2cache.tags.occ_blocks::.cpu.inst   429.100891                       # Average occupied blocks per requestor
system.l2cache.tags.occ_blocks::.cpu.data  1092.096619                       # Average occupied blocks per requestor
system.l2cache.tags.occ_blocks::.cpu.dcache.prefetcher  2284.877581                       # Average occupied blocks per requestor
system.l2cache.tags.occ_blocks::.l2cache.prefetcher   159.667280                       # Average occupied blocks per requestor
system.l2cache.tags.occ_percent::.writebacks     0.031801                       # Average percentage of cache occupancy
system.l2cache.tags.occ_percent::.cpu.inst     0.104761                       # Average percentage of cache occupancy
system.l2cache.tags.occ_percent::.cpu.data     0.266625                       # Average percentage of cache occupancy
system.l2cache.tags.occ_percent::.cpu.dcache.prefetcher     0.557831                       # Average percentage of cache occupancy
system.l2cache.tags.occ_percent::.l2cache.prefetcher     0.038981                       # Average percentage of cache occupancy
system.l2cache.tags.occ_percent::total       1.000000                       # Average percentage of cache occupancy
system.l2cache.tags.occ_task_id_blocks::1022         2120                       # Occupied blocks per task id
system.l2cache.tags.occ_task_id_blocks::1024         1976                       # Occupied blocks per task id
system.l2cache.tags.age_task_id_blocks_1022::0           22                       # Occupied blocks per task id
system.l2cache.tags.age_task_id_blocks_1022::1          387                       # Occupied blocks per task id
system.l2cache.tags.age_task_id_blocks_1022::2         1711                       # Occupied blocks per task id
system.l2cache.tags.age_task_id_blocks_1024::0          217                       # Occupied blocks per task id
system.l2cache.tags.age_task_id_blocks_1024::1         1054                       # Occupied blocks per task id
system.l2cache.tags.age_task_id_blocks_1024::2          705                       # Occupied blocks per task id
system.l2cache.tags.occ_task_id_percent::1022     0.517578                       # Percentage of cache occupancy per task id
system.l2cache.tags.occ_task_id_percent::1024     0.482422                       # Percentage of cache occupancy per task id
system.l2cache.tags.tag_accesses                28190                       # Number of tag accesses
system.l2cache.tags.data_accesses               28190                       # Number of data accesses
system.mem_ctrl.pwrStateResidencyTicks::UNDEFINED     92137200                       # Cumulative time (in ticks) in various power states
system.mem_ctrl.bytes_read::.cpu.inst           26048                       # Number of bytes read from this memory
system.mem_ctrl.bytes_read::.cpu.data           47616                       # Number of bytes read from this memory
system.mem_ctrl.bytes_read::.cpu.dcache.prefetcher         4352                       # Number of bytes read from this memory
system.mem_ctrl.bytes_read::.l2cache.prefetcher        14528                       # Number of bytes read from this memory
system.mem_ctrl.bytes_read::total               92544                       # Number of bytes read from this memory
system.mem_ctrl.bytes_inst_read::.cpu.inst        26048                       # Number of instructions bytes read from this memory
system.mem_ctrl.bytes_inst_read::total          26048                       # Number of instructions bytes read from this memory
system.mem_ctrl.bytes_written::.writebacks          512                       # Number of bytes written to this memory
system.mem_ctrl.bytes_written::total              512                       # Number of bytes written to this memory
system.mem_ctrl.num_reads::.cpu.inst              407                       # Number of read requests responded to by this memory
system.mem_ctrl.num_reads::.cpu.data              744                       # Number of read requests responded to by this memory
system.mem_ctrl.num_reads::.cpu.dcache.prefetcher           68                       # Number of read requests responded to by this memory
system.mem_ctrl.num_reads::.l2cache.prefetcher          227                       # Number of read requests responded to by this memory
system.mem_ctrl.num_reads::total                 1446                       # Number of read requests responded to by this memory
system.mem_ctrl.num_writes::.writebacks             8                       # Number of write requests responded to by this memory
system.mem_ctrl.num_writes::total                   8                       # Number of write requests responded to by this memory
system.mem_ctrl.bw_read::.cpu.inst          282708830                       # Total read bandwidth from this memory (bytes/s)
system.mem_ctrl.bw_read::.cpu.data          516794519                       # Total read bandwidth from this memory (bytes/s)
system.mem_ctrl.bw_read::.cpu.dcache.prefetcher     47233908                       # Total read bandwidth from this memory (bytes/s)
system.mem_ctrl.bw_read::.l2cache.prefetcher    157677898                       # Total read bandwidth from this memory (bytes/s)
system.mem_ctrl.bw_read::total             1004415155                       # Total read bandwidth from this memory (bytes/s)
system.mem_ctrl.bw_inst_read::.cpu.inst     282708830                       # Instruction read bandwidth from this memory (bytes/s)
system.mem_ctrl.bw_inst_read::total         282708830                       # Instruction read bandwidth from this memory (bytes/s)
system.mem_ctrl.bw_write::.writebacks         5556930                       # Write bandwidth from this memory (bytes/s)
system.mem_ctrl.bw_write::total               5556930                       # Write bandwidth from this memory (bytes/s)
system.mem_ctrl.bw_total::.writebacks         5556930                       # Total bandwidth to/from this memory (bytes/s)
system.mem_ctrl.bw_total::.cpu.inst         282708830                       # Total bandwidth to/from this memory (bytes/s)
system.mem_ctrl.bw_total::.cpu.data         516794519                       # Total bandwidth to/from this memory (bytes/s)
system.mem_ctrl.bw_total::.cpu.dcache.prefetcher     47233908                       # Total bandwidth to/from this memory (bytes/s)
system.mem_ctrl.bw_total::.l2cache.prefetcher    157677898                       # Total bandwidth to/from this memory (bytes/s)
system.mem_ctrl.bw_total::total            1009972085                       # Total bandwidth to/from this memory (bytes/s)

---------- End Simulation Statistics   ----------
