
---------- Begin Simulation Statistics ----------
final_tick                                 1159428800                       # Number of ticks from beginning of simulation (restored from checkpoints and never reset)
host_inst_rate                                 174144                       # Simulator instruction rate (inst/s)
host_mem_usage                                4407928                       # Number of bytes of host memory used
host_op_rate                                   306741                       # Simulator op (including micro ops) rate (op/s)
host_seconds                                    12.98                       # Real time elapsed on the host
host_tick_rate                               89313647                       # Simulator tick rate (ticks/s)
sim_freq                                 1000000000000                       # Frequency of simulated ticks
sim_insts                                     2260645                       # Number of instructions simulated
sim_ops                                       3981963                       # Number of ops (including micro ops) simulated
sim_seconds                                  0.001159                       # Number of seconds simulated
sim_ticks                                  1159428800                       # Number of ticks simulated
system.cpu.branchPred.BTBCorrect                    0                       # Number of correct BTB predictions (this stat may not work properly.
system.cpu.branchPred.BTBHitPct              0.000000                       # BTB Hit Percentage
system.cpu.branchPred.BTBHits                       0                       # Number of BTB hits
system.cpu.branchPred.BTBLookups               472632                       # Number of BTB lookups
system.cpu.branchPred.RASInCorrect                  9                       # Number of incorrect RAS predictions.
system.cpu.branchPred.condIncorrect             23839                       # Number of conditional branches incorrect
system.cpu.branchPred.condPredicted            495976                       # Number of conditional branches predicted
system.cpu.branchPred.indirectHits             259693                       # Number of indirect target hits.
system.cpu.branchPred.indirectLookups          472632                       # Number of indirect predictor lookups.
system.cpu.branchPred.indirectMisses           212939                       # Number of indirect misses.
system.cpu.branchPred.lookups                  532697                       # Number of BP lookups
system.cpu.branchPred.usedRAS                   16505                       # Number of times the RAS was used to get a target.
system.cpu.branchPredindirectMispredicted        12170                       # Number of mispredicted indirect branches.
system.cpu.cc_regfile_reads                   2541387                       # number of cc regfile reads
system.cpu.cc_regfile_writes                  2016633                       # number of cc regfile writes
system.cpu.commit.amos                              0                       # Number of atomic instructions committed
system.cpu.commit.branchMispredicts             23999                       # The number of times a branch was mispredicted
system.cpu.commit.branches                     392631                       # Number of branches committed
system.cpu.commit.bw_lim_events                668161                       # number cycles where commit BW limit reached
system.cpu.commit.commitNonSpecStalls             920                       # The number of times commit has been forced to stall to communicate backwards
system.cpu.commit.commitSquashedInsts          870054                       # The number of squashed insts skipped by commit
system.cpu.commit.committedInsts              2260645                       # Number of instructions committed
system.cpu.commit.committedOps                3981963                       # Number of ops (including micro ops) committed
system.cpu.commit.committed_per_cycle::samples      2495300                       # Number of insts commited each cycle
system.cpu.commit.committed_per_cycle::mean     1.595785                       # Number of insts commited each cycle
system.cpu.commit.committed_per_cycle::stdev     1.735755                       # Number of insts commited each cycle
system.cpu.commit.committed_per_cycle::underflows            0      0.00%      0.00% # Number of insts commited each cycle
system.cpu.commit.committed_per_cycle::0      1201676     48.16%     48.16% # Number of insts commited each cycle
system.cpu.commit.committed_per_cycle::1       193959      7.77%     55.93% # Number of insts commited each cycle
system.cpu.commit.committed_per_cycle::2       179152      7.18%     63.11% # Number of insts commited each cycle
system.cpu.commit.committed_per_cycle::3       252352     10.11%     73.22% # Number of insts commited each cycle
system.cpu.commit.committed_per_cycle::4       668161     26.78%    100.00% # Number of insts commited each cycle
system.cpu.commit.committed_per_cycle::overflows            0      0.00%    100.00% # Number of insts commited each cycle
system.cpu.commit.committed_per_cycle::min_value            0                       # Number of insts commited each cycle
system.cpu.commit.committed_per_cycle::max_value            4                       # Number of insts commited each cycle
system.cpu.commit.committed_per_cycle::total      2495300                       # Number of insts commited each cycle
system.cpu.commit.fp_insts                      76743                       # Number of committed floating point instructions.
system.cpu.commit.function_calls                14560                       # Number of function calls committed.
system.cpu.commit.int_insts                   3925933                       # Number of committed integer instructions.
system.cpu.commit.loads                        559767                       # Number of loads committed
system.cpu.commit.membars                           1                       # Number of memory barriers committed
system.cpu.commit.op_class_0::No_OpClass        20519      0.52%      0.52% # Class of committed instruction
system.cpu.commit.op_class_0::IntAlu          3117107     78.28%     78.80% # Class of committed instruction
system.cpu.commit.op_class_0::IntMult            1910      0.05%     78.84% # Class of committed instruction
system.cpu.commit.op_class_0::IntDiv            36260      0.91%     79.75% # Class of committed instruction
system.cpu.commit.op_class_0::FloatAdd           3045      0.08%     79.83% # Class of committed instruction
system.cpu.commit.op_class_0::FloatCmp              0      0.00%     79.83% # Class of committed instruction
system.cpu.commit.op_class_0::FloatCvt           1488      0.04%     79.87% # Class of committed instruction
system.cpu.commit.op_class_0::FloatMult             0      0.00%     79.87% # Class of committed instruction
system.cpu.commit.op_class_0::FloatMultAcc            0      0.00%     79.87% # Class of committed instruction
system.cpu.commit.op_class_0::FloatDiv              0      0.00%     79.87% # Class of committed instruction
system.cpu.commit.op_class_0::FloatMisc             0      0.00%     79.87% # Class of committed instruction
system.cpu.commit.op_class_0::FloatSqrt             0      0.00%     79.87% # Class of committed instruction
system.cpu.commit.op_class_0::SimdAdd            6388      0.16%     80.03% # Class of committed instruction
system.cpu.commit.op_class_0::SimdAddAcc            0      0.00%     80.03% # Class of committed instruction
system.cpu.commit.op_class_0::SimdAlu           11466      0.29%     80.32% # Class of committed instruction
system.cpu.commit.op_class_0::SimdCmp               0      0.00%     80.32% # Class of committed instruction
system.cpu.commit.op_class_0::SimdCvt           12492      0.31%     80.63% # Class of committed instruction
system.cpu.commit.op_class_0::SimdMisc           6724      0.17%     80.80% # Class of committed instruction
system.cpu.commit.op_class_0::SimdMult              0      0.00%     80.80% # Class of committed instruction
system.cpu.commit.op_class_0::SimdMultAcc            0      0.00%     80.80% # Class of committed instruction
system.cpu.commit.op_class_0::SimdShift          1331      0.03%     80.83% # Class of committed instruction
system.cpu.commit.op_class_0::SimdShiftAcc            0      0.00%     80.83% # Class of committed instruction
system.cpu.commit.op_class_0::SimdDiv               0      0.00%     80.83% # Class of committed instruction
system.cpu.commit.op_class_0::SimdSqrt              0      0.00%     80.83% # Class of committed instruction
system.cpu.commit.op_class_0::SimdFloatAdd            0      0.00%     80.83% # Class of committed instruction
system.cpu.commit.op_class_0::SimdFloatAlu            0      0.00%     80.83% # Class of committed instruction
system.cpu.commit.op_class_0::SimdFloatCmp            0      0.00%     80.83% # Class of committed instruction
system.cpu.commit.op_class_0::SimdFloatCvt            0      0.00%     80.83% # Class of committed instruction
system.cpu.commit.op_class_0::SimdFloatDiv            0      0.00%     80.83% # Class of committed instruction
system.cpu.commit.op_class_0::SimdFloatMisc            0      0.00%     80.83% # Class of committed instruction
system.cpu.commit.op_class_0::SimdFloatMult            0      0.00%     80.83% # Class of committed instruction
system.cpu.commit.op_class_0::SimdFloatMultAcc            0      0.00%     80.83% # Class of committed instruction
system.cpu.commit.op_class_0::SimdFloatSqrt            0      0.00%     80.83% # Class of committed instruction
system.cpu.commit.op_class_0::SimdReduceAdd            0      0.00%     80.83% # Class of committed instruction
system.cpu.commit.op_class_0::SimdReduceAlu            0      0.00%     80.83% # Class of committed instruction
system.cpu.commit.op_class_0::SimdReduceCmp            0      0.00%     80.83% # Class of committed instruction
system.cpu.commit.op_class_0::SimdFloatReduceAdd            0      0.00%     80.83% # Class of committed instruction
system.cpu.commit.op_class_0::SimdFloatReduceCmp            0      0.00%     80.83% # Class of committed instruction
system.cpu.commit.op_class_0::SimdAes               0      0.00%     80.83% # Class of committed instruction
system.cpu.commit.op_class_0::SimdAesMix            0      0.00%     80.83% # Class of committed instruction
system.cpu.commit.op_class_0::SimdSha1Hash            0      0.00%     80.83% # Class of committed instruction
system.cpu.commit.op_class_0::SimdSha1Hash2            0      0.00%     80.83% # Class of committed instruction
system.cpu.commit.op_class_0::SimdSha256Hash            0      0.00%     80.83% # Class of committed instruction
system.cpu.commit.op_class_0::SimdSha256Hash2            0      0.00%     80.83% # Class of committed instruction
system.cpu.commit.op_class_0::SimdShaSigma2            0      0.00%     80.83% # Class of committed instruction
system.cpu.commit.op_class_0::SimdShaSigma3            0      0.00%     80.83% # Class of committed instruction
system.cpu.commit.op_class_0::SimdPredAlu            0      0.00%     80.83% # Class of committed instruction
system.cpu.commit.op_class_0::MemRead          539585     13.55%     94.38% # Class of committed instruction
system.cpu.commit.op_class_0::MemWrite         190713      4.79%     99.17% # Class of committed instruction
system.cpu.commit.op_class_0::FloatMemRead        20182      0.51%     99.68% # Class of committed instruction
system.cpu.commit.op_class_0::FloatMemWrite        12753      0.32%    100.00% # Class of committed instruction
system.cpu.commit.op_class_0::IprAccess             0      0.00%    100.00% # Class of committed instruction
system.cpu.commit.op_class_0::InstPrefetch            0      0.00%    100.00% # Class of committed instruction
system.cpu.commit.op_class_0::total           3981963                       # Class of committed instruction
system.cpu.commit.refs                         763233                       # Number of memory references committed
system.cpu.commit.swp_count                         0                       # Number of s/w prefetches committed
system.cpu.commit.vec_insts                         0                       # Number of committed Vector instructions.
system.cpu.committedInsts                     2260645                       # Number of Instructions Simulated
system.cpu.committedOps                       3981963                       # Number of Ops (including micro ops) Simulated
system.cpu.cpi                               1.282188                       # CPI: Cycles Per Instruction
system.cpu.cpi_total                         1.282188                       # CPI: Total CPI of All Threads
system.cpu.dcache.prefetcher.num_hwpf_issued         7877                       # number of hwpf issued
system.cpu.dcache.prefetcher.pfBufferHit        33178                       # number of redundant prefetches already in prefetch queue
system.cpu.dcache.prefetcher.pfIdentified        48440                       # number of prefetch candidates identified
system.cpu.dcache.prefetcher.pfInCache              0                       # number of redundant prefetches already in cache/mshr dropped
system.cpu.dcache.prefetcher.pfRemovedFull            0                       # number of prefetches dropped due to prefetch queue size
system.cpu.dcache.prefetcher.pfSpanPage          4252                       # number of prefetches that crossed the page
system.cpu.decode.BlockedCycles               1042087                       # Number of cycles decode is blocked
system.cpu.decode.DecodedInsts                5062531                       # Number of instructions handled by decode
system.cpu.decode.IdleCycles                   332227                       # Number of cycles decode is idle
system.cpu.decode.RunCycles                   1246938                       # Number of cycles decode is running
system.cpu.decode.SquashCycles                  24070                       # Number of cycles decode is squashing
system.cpu.decode.UnblockCycles                 87706                       # Number of cycles decode is unblocking
system.cpu.dtb.rdAccesses                      642547                       # TLB accesses on read requests
system.cpu.dtb.rdMisses                          2019                       # TLB misses on read requests
system.cpu.dtb.wrAccesses                      222430                       # TLB accesses on write requests
system.cpu.dtb.wrMisses                           158                       # TLB misses on write requests
system.cpu.fetch.Branches                      532697                       # Number of branches that fetch encountered
system.cpu.fetch.CacheLines                    270923                       # Number of cache lines fetched
system.cpu.fetch.Cycles                       2342953                       # Number of cycles fetch has run and was not squashing or blocked
system.cpu.fetch.IcacheSquashes                  4726                       # Number of outstanding Icache misses that were squashed
system.cpu.fetch.Insts                        3013968                       # Number of instructions fetch has processed
system.cpu.fetch.MiscStallCycles                  209                       # Number of cycles fetch has spent waiting on interrupts, or bad addresses, or out of MSHRs
system.cpu.fetch.PendingQuiesceStallCycles            6                       # Number of stall cycles due to pending quiesce instructions
system.cpu.fetch.PendingTrapStallCycles          1102                       # Number of stall cycles due to pending traps
system.cpu.fetch.SquashCycles                   48140                       # Number of cycles fetch has spent squashing
system.cpu.fetch.branchRate                  0.183779                       # Number of branch fetches per cycle
system.cpu.fetch.icacheStallCycles             364688                       # Number of cycles fetch is stalled on an Icache miss
system.cpu.fetch.predictedBranches             276198                       # Number of branches that fetch has predicted taken
system.cpu.fetch.rate                        1.039811                       # Number of inst fetches per cycle
system.cpu.fetch.rateDist::samples            2733028                       # Number of instructions fetched each cycle (Total)
system.cpu.fetch.rateDist::mean              1.950459                       # Number of instructions fetched each cycle (Total)
system.cpu.fetch.rateDist::stdev             1.926200                       # Number of instructions fetched each cycle (Total)
system.cpu.fetch.rateDist::underflows               0      0.00%      0.00% # Number of instructions fetched each cycle (Total)
system.cpu.fetch.rateDist::0                  1283224     46.95%     46.95% # Number of instructions fetched each cycle (Total)
system.cpu.fetch.rateDist::1                    81158      2.97%     49.92% # Number of instructions fetched each cycle (Total)
system.cpu.fetch.rateDist::2                    66760      2.44%     52.36% # Number of instructions fetched each cycle (Total)
system.cpu.fetch.rateDist::3                    91562      3.35%     55.71% # Number of instructions fetched each cycle (Total)
system.cpu.fetch.rateDist::4                  1210324     44.29%    100.00% # Number of instructions fetched each cycle (Total)
system.cpu.fetch.rateDist::overflows                0      0.00%    100.00% # Number of instructions fetched each cycle (Total)
system.cpu.fetch.rateDist::min_value                0                       # Number of instructions fetched each cycle (Total)
system.cpu.fetch.rateDist::max_value                4                       # Number of instructions fetched each cycle (Total)
system.cpu.fetch.rateDist::total              2733028                       # Number of instructions fetched each cycle (Total)
system.cpu.fp_regfile_reads                    123826                       # number of floating regfile reads
system.cpu.fp_regfile_writes                    68360                       # number of floating regfile writes
system.cpu.fuPool.fu_ticks_busy::IntALU(0)    236089600                       # Total ticks fu was busy
system.cpu.fuPool.fu_ticks_busy::IntALU(1)    236089600                       # Total ticks fu was busy
system.cpu.fuPool.fu_ticks_busy::IntALU(2)    236089600                       # Total ticks fu was busy
system.cpu.fuPool.fu_ticks_busy::IntALU(3)    236089600                       # Total ticks fu was busy
system.cpu.fuPool.fu_ticks_busy::IntALU(4)    236089600                       # Total ticks fu was busy
system.cpu.fuPool.fu_ticks_busy::IntALU(5)    236089200                       # Total ticks fu was busy
system.cpu.fuPool.fu_ticks_busy::IntMultDiv(0)      8317200                       # Total ticks fu was busy
system.cpu.fuPool.fu_ticks_busy::IntMultDiv(1)      8316400                       # Total ticks fu was busy
system.cpu.fuPool.fu_ticks_busy::FP_ALU(0)       618000                       # Total ticks fu was busy
system.cpu.fuPool.fu_ticks_busy::FP_ALU(1)       618000                       # Total ticks fu was busy
system.cpu.fuPool.fu_ticks_busy::FP_ALU(2)       618000                       # Total ticks fu was busy
system.cpu.fuPool.fu_ticks_busy::FP_ALU(3)       618000                       # Total ticks fu was busy
system.cpu.fuPool.fu_ticks_busy::FP_MultDiv(0)            0                       # Total ticks fu was busy
system.cpu.fuPool.fu_ticks_busy::FP_MultDiv(1)            0                       # Total ticks fu was busy
system.cpu.fuPool.fu_ticks_busy::SIMD_Unit(0)      4437200                       # Total ticks fu was busy
system.cpu.fuPool.fu_ticks_busy::SIMD_Unit(1)      4500800                       # Total ticks fu was busy
system.cpu.fuPool.fu_ticks_busy::SIMD_Unit(2)      4798800                       # Total ticks fu was busy
system.cpu.fuPool.fu_ticks_busy::SIMD_Unit(3)      4740000                       # Total ticks fu was busy
system.cpu.fuPool.fu_ticks_busy::PredALU(0)            0                       # Total ticks fu was busy
system.cpu.fuPool.fu_ticks_busy::RdWrPort(0)     87899600                       # Total ticks fu was busy
system.cpu.fuPool.fu_ticks_busy::RdWrPort(1)     87927200                       # Total ticks fu was busy
system.cpu.fuPool.fu_ticks_busy::RdWrPort(2)     87962800                       # Total ticks fu was busy
system.cpu.fuPool.fu_ticks_busy::RdWrPort(3)     87953200                       # Total ticks fu was busy
system.cpu.fuPool.fu_ticks_busy::IprPort(0)            0                       # Total ticks fu was busy
system.cpu.fuPool.fu_ticks_busy::total     1805862400                       # Total ticks fu was busy
system.cpu.icache.prefetcher.num_hwpf_issued            0                       # number of hwpf issued
system.cpu.icache.prefetcher.pfBufferHit            0                       # number of redundant prefetches already in prefetch queue
system.cpu.icache.prefetcher.pfIdentified            0                       # number of prefetch candidates identified
system.cpu.icache.prefetcher.pfInCache              0                       # number of redundant prefetches already in cache/mshr dropped
system.cpu.icache.prefetcher.pfRemovedFull            0                       # number of prefetches dropped due to prefetch queue size
system.cpu.icache.prefetcher.pfSpanPage             0                       # number of prefetches that crossed the page
system.cpu.idleCycles                          165545                       # Total number of cycles that the CPU has spent unscheduled due to idling
system.cpu.iew.branchMispredicts                28456                       # Number of branch mispredicts detected at execute
system.cpu.iew.exec_branches                   422777                       # Number of branches executed
system.cpu.iew.exec_nop                             0                       # number of nop insts executed
system.cpu.iew.exec_rate                     1.555188                       # Inst execution rate
system.cpu.iew.exec_refs                       866631                       # number of memory reference insts executed
system.cpu.iew.exec_stores                     222416                       # Number of stores executed
system.cpu.iew.exec_swp                             0                       # number of swp insts executed
system.cpu.iew.iewBlockCycles                  693668                       # Number of cycles IEW is blocking
system.cpu.iew.iewDispLoadInsts                674283                       # Number of dispatched load instructions
system.cpu.iew.iewDispNonSpecInsts               1148                       # Number of dispatched non-speculative instructions
system.cpu.iew.iewDispSquashedInsts               556                       # Number of squashed instructions skipped by dispatch
system.cpu.iew.iewDispStoreInsts               232625                       # Number of dispatched store instructions
system.cpu.iew.iewDispatchedInsts             4851969                       # Number of instructions dispatched to IQ
system.cpu.iew.iewExecLoadInsts                644215                       # Number of load instructions executed
system.cpu.iew.iewExecSquashedInsts             33487                       # Number of squashed instructions skipped in execute
system.cpu.iew.iewExecutedInsts               4507826                       # Number of executed instructions
system.cpu.iew.iewIQFullEvents                   3312                       # Number of times the IQ has become full, causing a stall
system.cpu.iew.iewIdleCycles                        0                       # Number of cycles IEW is idle
system.cpu.iew.iewLSQFullEvents                  7758                       # Number of times the LSQ has become full, causing a stall
system.cpu.iew.iewSquashCycles                  24070                       # Number of cycles IEW is squashing
system.cpu.iew.iewUnblockCycles                 13957                       # Number of cycles IEW is unblocking
system.cpu.iew.lsq.thread0.blockedLoads             0                       # Number of blocked loads due to partial load-store forwarding
system.cpu.iew.lsq.thread0.cacheBlocked           608                       # Number of times an access to memory failed due to the cache being blocked
system.cpu.iew.lsq.thread0.forwLoads            42534                       # Number of loads that had data forwarded from stores
system.cpu.iew.lsq.thread0.ignoredResponses          247                       # Number of memory responses ignored because the instruction is squashed
system.cpu.iew.lsq.thread0.invAddrLoads             0                       # Number of loads ignored due to an invalid address
system.cpu.iew.lsq.thread0.invAddrSwpfs             0                       # Number of software prefetches ignored due to an invalid address
system.cpu.iew.lsq.thread0.memOrderViolation           81                       # Number of memory ordering violations
system.cpu.iew.lsq.thread0.rescheduledLoads            0                       # Number of loads that were rescheduled
system.cpu.iew.lsq.thread0.squashedLoads       114514                       # Number of loads squashed
system.cpu.iew.lsq.thread0.squashedStores        29158                       # Number of stores squashed
system.cpu.iew.memOrderViolationEvents             81                       # Number of memory order violations
system.cpu.iew.predictedNotTakenIncorrect        20469                       # Number of branches that were predicted not taken incorrectly
system.cpu.iew.predictedTakenIncorrect           7987                       # Number of branches that were predicted taken incorrectly
system.cpu.iew.wb_consumers                   6147567                       # num instructions consuming a value
system.cpu.iew.wb_count                       4485753                       # cumulative count of insts written-back
system.cpu.iew.wb_fanout                     0.573767                       # average fanout of values written-back
system.cpu.iew.wb_producers                   3527273                       # num instructions producing a value
system.cpu.iew.wb_rate                       1.547573                       # insts written-back per cycle
system.cpu.iew.wb_sent                        4492605                       # cumulative count of insts sent to commit
system.cpu.int_regfile_reads                  6987619                       # number of integer regfile reads
system.cpu.int_regfile_writes                 3844544                       # number of integer regfile writes
system.cpu.ipc                               0.779917                       # IPC: Instructions Per Cycle
system.cpu.ipc_total                         0.779917                       # IPC: Total IPC of All Threads
system.cpu.iq.FU_type_0::No_OpClass             26657      0.59%      0.59% # Type of FU issued
system.cpu.iq.FU_type_0::IntAlu               3541344     77.98%     78.57% # Type of FU issued
system.cpu.iq.FU_type_0::IntMult                 1933      0.04%     78.61% # Type of FU issued
system.cpu.iq.FU_type_0::IntDiv                 39651      0.87%     79.48% # Type of FU issued
system.cpu.iq.FU_type_0::FloatAdd                4652      0.10%     79.59% # Type of FU issued
system.cpu.iq.FU_type_0::FloatCmp                   0      0.00%     79.59% # Type of FU issued
system.cpu.iq.FU_type_0::FloatCvt                1528      0.03%     79.62% # Type of FU issued
system.cpu.iq.FU_type_0::FloatMult                  0      0.00%     79.62% # Type of FU issued
system.cpu.iq.FU_type_0::FloatMultAcc               0      0.00%     79.62% # Type of FU issued
system.cpu.iq.FU_type_0::FloatDiv                   0      0.00%     79.62% # Type of FU issued
system.cpu.iq.FU_type_0::FloatMisc                  0      0.00%     79.62% # Type of FU issued
system.cpu.iq.FU_type_0::FloatSqrt                  0      0.00%     79.62% # Type of FU issued
system.cpu.iq.FU_type_0::SimdAdd                 7012      0.15%     79.77% # Type of FU issued
system.cpu.iq.FU_type_0::SimdAddAcc                 0      0.00%     79.77% # Type of FU issued
system.cpu.iq.FU_type_0::SimdAlu                15061      0.33%     80.11% # Type of FU issued
system.cpu.iq.FU_type_0::SimdCmp                    0      0.00%     80.11% # Type of FU issued
system.cpu.iq.FU_type_0::SimdCvt                14314      0.32%     80.42% # Type of FU issued
system.cpu.iq.FU_type_0::SimdMisc                7312      0.16%     80.58% # Type of FU issued
system.cpu.iq.FU_type_0::SimdMult                   0      0.00%     80.58% # Type of FU issued
system.cpu.iq.FU_type_0::SimdMultAcc                0      0.00%     80.58% # Type of FU issued
system.cpu.iq.FU_type_0::SimdShift               2493      0.05%     80.64% # Type of FU issued
system.cpu.iq.FU_type_0::SimdShiftAcc               0      0.00%     80.64% # Type of FU issued
system.cpu.iq.FU_type_0::SimdDiv                    0      0.00%     80.64% # Type of FU issued
system.cpu.iq.FU_type_0::SimdSqrt                   0      0.00%     80.64% # Type of FU issued
system.cpu.iq.FU_type_0::SimdFloatAdd               0      0.00%     80.64% # Type of FU issued
system.cpu.iq.FU_type_0::SimdFloatAlu               0      0.00%     80.64% # Type of FU issued
system.cpu.iq.FU_type_0::SimdFloatCmp               0      0.00%     80.64% # Type of FU issued
system.cpu.iq.FU_type_0::SimdFloatCvt               0      0.00%     80.64% # Type of FU issued
system.cpu.iq.FU_type_0::SimdFloatDiv               0      0.00%     80.64% # Type of FU issued
system.cpu.iq.FU_type_0::SimdFloatMisc              0      0.00%     80.64% # Type of FU issued
system.cpu.iq.FU_type_0::SimdFloatMult              0      0.00%     80.64% # Type of FU issued
system.cpu.iq.FU_type_0::SimdFloatMultAcc            0      0.00%     80.64% # Type of FU issued
system.cpu.iq.FU_type_0::SimdFloatSqrt              0      0.00%     80.64% # Type of FU issued
system.cpu.iq.FU_type_0::SimdReduceAdd              0      0.00%     80.64% # Type of FU issued
system.cpu.iq.FU_type_0::SimdReduceAlu              0      0.00%     80.64% # Type of FU issued
system.cpu.iq.FU_type_0::SimdReduceCmp              0      0.00%     80.64% # Type of FU issued
system.cpu.iq.FU_type_0::SimdFloatReduceAdd            0      0.00%     80.64% # Type of FU issued
system.cpu.iq.FU_type_0::SimdFloatReduceCmp            0      0.00%     80.64% # Type of FU issued
system.cpu.iq.FU_type_0::SimdAes                    0      0.00%     80.64% # Type of FU issued
system.cpu.iq.FU_type_0::SimdAesMix                 0      0.00%     80.64% # Type of FU issued
system.cpu.iq.FU_type_0::SimdSha1Hash               0      0.00%     80.64% # Type of FU issued
system.cpu.iq.FU_type_0::SimdSha1Hash2              0      0.00%     80.64% # Type of FU issued
system.cpu.iq.FU_type_0::SimdSha256Hash             0      0.00%     80.64% # Type of FU issued
system.cpu.iq.FU_type_0::SimdSha256Hash2            0      0.00%     80.64% # Type of FU issued
system.cpu.iq.FU_type_0::SimdShaSigma2              0      0.00%     80.64% # Type of FU issued
system.cpu.iq.FU_type_0::SimdShaSigma3              0      0.00%     80.64% # Type of FU issued
system.cpu.iq.FU_type_0::SimdPredAlu                0      0.00%     80.64% # Type of FU issued
system.cpu.iq.FU_type_0::MemRead               628175     13.83%     94.47% # Type of FU issued
system.cpu.iq.FU_type_0::MemWrite              211029      4.65%     99.12% # Type of FU issued
system.cpu.iq.FU_type_0::FloatMemRead           26154      0.58%     99.69% # Type of FU issued
system.cpu.iq.FU_type_0::FloatMemWrite          14001      0.31%    100.00% # Type of FU issued
system.cpu.iq.FU_type_0::IprAccess                  0      0.00%    100.00% # Type of FU issued
system.cpu.iq.FU_type_0::InstPrefetch               0      0.00%    100.00% # Type of FU issued
system.cpu.iq.FU_type_0::total                4541316                       # Type of FU issued
system.cpu.iq.fp_alu_accesses                   93581                       # Number of floating point alu accesses
system.cpu.iq.fp_inst_queue_reads              188449                       # Number of floating instruction queue reads
system.cpu.iq.fp_inst_queue_wakeup_accesses        90122                       # Number of floating instruction queue wakeup accesses
system.cpu.iq.fp_inst_queue_writes             134811                       # Number of floating instruction queue writes
system.cpu.iq.fu_busy_cnt                           0                       # FU busy when requested
system.cpu.iq.fu_busy_rate                          0                       # FU busy rate (busy events/executed inst)
system.cpu.iq.fu_full::No_OpClass                   0                       # attempts to use FU when none available
system.cpu.iq.fu_full::IntAlu                       0                       # attempts to use FU when none available
system.cpu.iq.fu_full::IntMult                      0                       # attempts to use FU when none available
system.cpu.iq.fu_full::IntDiv                       0                       # attempts to use FU when none available
system.cpu.iq.fu_full::FloatAdd                     0                       # attempts to use FU when none available
system.cpu.iq.fu_full::FloatCmp                     0                       # attempts to use FU when none available
system.cpu.iq.fu_full::FloatCvt                     0                       # attempts to use FU when none available
system.cpu.iq.fu_full::FloatMult                    0                       # attempts to use FU when none available
system.cpu.iq.fu_full::FloatMultAcc                 0                       # attempts to use FU when none available
system.cpu.iq.fu_full::FloatDiv                     0                       # attempts to use FU when none available
system.cpu.iq.fu_full::FloatMisc                    0                       # attempts to use FU when none available
system.cpu.iq.fu_full::FloatSqrt                    0                       # attempts to use FU when none available
system.cpu.iq.fu_full::SimdAdd                      0                       # attempts to use FU when none available
system.cpu.iq.fu_full::SimdAddAcc                   0                       # attempts to use FU when none available
system.cpu.iq.fu_full::SimdAlu                      0                       # attempts to use FU when none available
system.cpu.iq.fu_full::SimdCmp                      0                       # attempts to use FU when none available
system.cpu.iq.fu_full::SimdCvt                      0                       # attempts to use FU when none available
system.cpu.iq.fu_full::SimdMisc                     0                       # attempts to use FU when none available
system.cpu.iq.fu_full::SimdMult                     0                       # attempts to use FU when none available
system.cpu.iq.fu_full::SimdMultAcc                  0                       # attempts to use FU when none available
system.cpu.iq.fu_full::SimdShift                    0                       # attempts to use FU when none available
system.cpu.iq.fu_full::SimdShiftAcc                 0                       # attempts to use FU when none available
system.cpu.iq.fu_full::SimdDiv                      0                       # attempts to use FU when none available
system.cpu.iq.fu_full::SimdSqrt                     0                       # attempts to use FU when none available
system.cpu.iq.fu_full::SimdFloatAdd                 0                       # attempts to use FU when none available
system.cpu.iq.fu_full::SimdFloatAlu                 0                       # attempts to use FU when none available
system.cpu.iq.fu_full::SimdFloatCmp                 0                       # attempts to use FU when none available
system.cpu.iq.fu_full::SimdFloatCvt                 0                       # attempts to use FU when none available
system.cpu.iq.fu_full::SimdFloatDiv                 0                       # attempts to use FU when none available
system.cpu.iq.fu_full::SimdFloatMisc                0                       # attempts to use FU when none available
system.cpu.iq.fu_full::SimdFloatMult                0                       # attempts to use FU when none available
system.cpu.iq.fu_full::SimdFloatMultAcc             0                       # attempts to use FU when none available
system.cpu.iq.fu_full::SimdFloatSqrt                0                       # attempts to use FU when none available
system.cpu.iq.fu_full::SimdReduceAdd                0                       # attempts to use FU when none available
system.cpu.iq.fu_full::SimdReduceAlu                0                       # attempts to use FU when none available
system.cpu.iq.fu_full::SimdReduceCmp                0                       # attempts to use FU when none available
system.cpu.iq.fu_full::SimdFloatReduceAdd            0                       # attempts to use FU when none available
system.cpu.iq.fu_full::SimdFloatReduceCmp            0                       # attempts to use FU when none available
system.cpu.iq.fu_full::SimdAes                      0                       # attempts to use FU when none available
system.cpu.iq.fu_full::SimdAesMix                   0                       # attempts to use FU when none available
system.cpu.iq.fu_full::SimdSha1Hash                 0                       # attempts to use FU when none available
system.cpu.iq.fu_full::SimdSha1Hash2                0                       # attempts to use FU when none available
system.cpu.iq.fu_full::SimdSha256Hash               0                       # attempts to use FU when none available
system.cpu.iq.fu_full::SimdSha256Hash2              0                       # attempts to use FU when none available
system.cpu.iq.fu_full::SimdShaSigma2                0                       # attempts to use FU when none available
system.cpu.iq.fu_full::SimdShaSigma3                0                       # attempts to use FU when none available
system.cpu.iq.fu_full::SimdPredAlu                  0                       # attempts to use FU when none available
system.cpu.iq.fu_full::MemRead                      0                       # attempts to use FU when none available
system.cpu.iq.fu_full::MemWrite                     0                       # attempts to use FU when none available
system.cpu.iq.fu_full::FloatMemRead                 0                       # attempts to use FU when none available
system.cpu.iq.fu_full::FloatMemWrite                0                       # attempts to use FU when none available
system.cpu.iq.fu_full::IprAccess                    0                       # attempts to use FU when none available
system.cpu.iq.fu_full::InstPrefetch                 0                       # attempts to use FU when none available
system.cpu.iq.int_alu_accesses                4421078                       # Number of integer alu accesses
system.cpu.iq.int_inst_queue_reads           11645058                       # Number of integer instruction queue reads
system.cpu.iq.int_inst_queue_wakeup_accesses      4395631                       # Number of integer instruction queue wakeup accesses
system.cpu.iq.int_inst_queue_writes           5587234                       # Number of integer instruction queue writes
system.cpu.iq.iqInstsAdded                    4850612                       # Number of instructions added to the IQ (excludes non-spec)
system.cpu.iq.iqInstsIssued                   4541316                       # Number of instructions issued
system.cpu.iq.iqNonSpecInstsAdded                1357                       # Number of non-speculative instructions added to the IQ
system.cpu.iq.iqSquashedInstsExamined          869995                       # Number of squashed instructions iterated over during squash; mainly for profiling
system.cpu.iq.iqSquashedInstsIssued             17850                       # Number of squashed instructions issued
system.cpu.iq.iqSquashedNonSpecRemoved            437                       # Number of squashed non-spec instructions that were removed
system.cpu.iq.iqSquashedOperandsExamined      1279341                       # Number of squashed operands that are examined and possibly removed from graph
system.cpu.iq.issued_per_cycle::samples       2733028                       # Number of insts issued each cycle
system.cpu.iq.issued_per_cycle::mean         1.661643                       # Number of insts issued each cycle
system.cpu.iq.issued_per_cycle::stdev        1.666277                       # Number of insts issued each cycle
system.cpu.iq.issued_per_cycle::underflows            0      0.00%      0.00% # Number of insts issued each cycle
system.cpu.iq.issued_per_cycle::0             1192800     43.64%     43.64% # Number of insts issued each cycle
system.cpu.iq.issued_per_cycle::1              194909      7.13%     50.78% # Number of insts issued each cycle
system.cpu.iq.issued_per_cycle::2              329153     12.04%     62.82% # Number of insts issued each cycle
system.cpu.iq.issued_per_cycle::3              376563     13.78%     76.60% # Number of insts issued each cycle
system.cpu.iq.issued_per_cycle::4              639603     23.40%    100.00% # Number of insts issued each cycle
system.cpu.iq.issued_per_cycle::overflows            0      0.00%    100.00% # Number of insts issued each cycle
system.cpu.iq.issued_per_cycle::min_value            0                       # Number of insts issued each cycle
system.cpu.iq.issued_per_cycle::max_value            4                       # Number of insts issued each cycle
system.cpu.iq.issued_per_cycle::total         2733028                       # Number of insts issued each cycle
system.cpu.iq.rate                           1.566742                       # Inst issue rate
system.cpu.iq.vec_alu_accesses                      0                       # Number of vector alu accesses
system.cpu.iq.vec_inst_queue_reads                  0                       # Number of vector instruction queue reads
system.cpu.iq.vec_inst_queue_wakeup_accesses            0                       # Number of vector instruction queue wakeup accesses
system.cpu.iq.vec_inst_queue_writes                 0                       # Number of vector instruction queue writes
system.cpu.itb.rdAccesses                           0                       # TLB accesses on read requests
system.cpu.itb.rdMisses                             0                       # TLB misses on read requests
system.cpu.itb.wrAccesses                      271103                       # TLB accesses on write requests
system.cpu.itb.wrMisses                           440                       # TLB misses on write requests
system.cpu.memDep0.conflictingLoads             11038                       # Number of conflicting loads.
system.cpu.memDep0.conflictingStores             6165                       # Number of conflicting stores.
system.cpu.memDep0.insertedLoads               674283                       # Number of loads inserted to the mem dependence unit.
system.cpu.memDep0.insertedStores              232625                       # Number of stores inserted to the mem dependence unit.
system.cpu.misc_regfile_reads                 1744529                       # number of misc regfile reads
system.cpu.misc_regfile_writes                    837                       # number of misc regfile writes
system.cpu.numCycles                          2898573                       # number of cpu cycles simulated
system.cpu.numWorkItemsCompleted                    0                       # number of work items this cpu completed
system.cpu.numWorkItemsStarted                      0                       # number of work items this cpu started
system.cpu.process.numSyscalls                     82                       # Number of system calls
system.cpu.rename.BlockCycles                  841541                       # Number of cycles rename is blocking
system.cpu.rename.CommittedMaps               5314096                       # Number of HB maps that are committed
system.cpu.rename.FullRegisterEvents              256                       # Number of times there has been no free registers
system.cpu.rename.IQFullEvents                  45598                       # Number of times rename has blocked due to IQ full
system.cpu.rename.IdleCycles                   381851                       # Number of cycles rename is idle
system.cpu.rename.LQFullEvents                  23592                       # Number of times rename has blocked due to LQ full
system.cpu.rename.ROBFullEvents                  5020                       # Number of times rename has blocked due to ROB full
system.cpu.rename.RenameLookups              12977388                       # Number of register rename lookups that rename has made
system.cpu.rename.RenamedInsts                4988950                       # Number of instructions processed by rename
system.cpu.rename.RenamedOperands             6672570                       # Number of destination operands rename has renamed
system.cpu.rename.RunCycles                   1276983                       # Number of cycles rename is running
system.cpu.rename.SQFullEvents                  79912                       # Number of times rename has blocked due to SQ full
system.cpu.rename.SquashCycles                  24070                       # Number of cycles rename is squashing
system.cpu.rename.UnblockCycles                185788                       # Number of cycles rename is unblocking
system.cpu.rename.UndoneMaps                  1358451                       # Number of HB maps that are undone due to squashing
system.cpu.rename.fp_rename_lookups            159118                       # Number of floating rename lookups
system.cpu.rename.int_rename_lookups          7898253                       # Number of integer rename lookups
system.cpu.rename.serializeStallCycles          22795                       # count of cycles rename stalled for serializing inst
system.cpu.rename.serializingInsts               1109                       # count of serializing insts renamed
system.cpu.rename.skidInsts                    204970                       # count of insts added to the skid buffer
system.cpu.rename.tempSerializingInsts           1176                       # count of temporary serializing insts renamed
system.cpu.rob.rob_reads                      6679156                       # The number of ROB reads
system.cpu.rob.rob_writes                     9942711                       # The number of ROB writes
system.cpu.timesIdled                            1786                       # Number of times that the entire CPU went into an idle state and unscheduled itself
system.l2bus.snoop_filter.hit_multi_requests           10                       # Number of requests hitting in the snoop filter with multiple (>1) holders of the requested data.
system.l2bus.snoop_filter.hit_multi_snoops            0                       # Number of snoops hitting in the snoop filter with multiple (>1) holders of the requested data.
system.l2bus.snoop_filter.hit_single_requests        18831                       # Number of requests hitting in the snoop filter with a single holder of the requested data.
system.l2bus.snoop_filter.hit_single_snoops          441                       # Number of snoops hitting in the snoop filter with a single holder of the requested data.
system.l2bus.snoop_filter.tot_requests          38942                       # Total number of requests made to the snoop filter.
system.l2bus.snoop_filter.tot_snoops              441                       # Total number of snoops made to the snoop filter.
system.l2cache.prefetcher.num_hwpf_issued          719                       # number of hwpf issued
system.l2cache.prefetcher.pfBufferHit               0                       # number of redundant prefetches already in prefetch queue
system.l2cache.prefetcher.pfIdentified            719                       # number of prefetch candidates identified
system.l2cache.prefetcher.pfInCache                 0                       # number of redundant prefetches already in cache/mshr dropped
system.l2cache.prefetcher.pfRemovedFull             0                       # number of prefetches dropped due to prefetch queue size
system.l2cache.prefetcher.pfSpanPage              133                       # number of prefetches that crossed the page
system.membus.snoop_filter.hit_multi_requests            0                       # Number of requests hitting in the snoop filter with multiple (>1) holders of the requested data.
system.membus.snoop_filter.hit_multi_snoops            0                       # Number of snoops hitting in the snoop filter with multiple (>1) holders of the requested data.
system.membus.snoop_filter.hit_single_requests         9533                       # Number of requests hitting in the snoop filter with a single holder of the requested data.
system.membus.snoop_filter.hit_single_snoops            0                       # Number of snoops hitting in the snoop filter with a single holder of the requested data.
system.membus.snoop_filter.tot_requests         23195                       # Total number of requests made to the snoop filter.
system.membus.snoop_filter.tot_snoops               0                       # Total number of snoops made to the snoop filter.
system.membus.pwrStateResidencyTicks::UNDEFINED   1159428800                       # Cumulative time (in ticks) in various power states
system.membus.trans_dist::ReadResp              12332                       # Transaction distribution
system.membus.trans_dist::WritebackDirty         1350                       # Transaction distribution
system.membus.trans_dist::CleanEvict             8183                       # Transaction distribution
system.membus.trans_dist::ReadExReq              1330                       # Transaction distribution
system.membus.trans_dist::ReadExResp             1330                       # Transaction distribution
system.membus.trans_dist::ReadSharedReq         12332                       # Transaction distribution
system.membus.pkt_count_system.l2cache.mem_side::system.mem_ctrl.port        36857                       # Packet count per connected master and slave (bytes)
system.membus.pkt_count_system.l2cache.mem_side::total        36857                       # Packet count per connected master and slave (bytes)
system.membus.pkt_count::total                  36857                       # Packet count per connected master and slave (bytes)
system.membus.pkt_size_system.l2cache.mem_side::system.mem_ctrl.port       960768                       # Cumulative packet size per connected master and slave (bytes)
system.membus.pkt_size_system.l2cache.mem_side::total       960768                       # Cumulative packet size per connected master and slave (bytes)
system.membus.pkt_size::total                  960768                       # Cumulative packet size per connected master and slave (bytes)
system.membus.snoops                                0                       # Total snoops (count)
system.membus.snoopTraffic                          0                       # Total snoop traffic (bytes)
system.membus.snoop_fanout::samples             13662                       # Request fanout histogram
system.membus.snoop_fanout::mean                    0                       # Request fanout histogram
system.membus.snoop_fanout::stdev                   0                       # Request fanout histogram
system.membus.snoop_fanout::underflows              0      0.00%      0.00% # Request fanout histogram
system.membus.snoop_fanout::0                   13662    100.00%    100.00% # Request fanout histogram
system.membus.snoop_fanout::1                       0      0.00%    100.00% # Request fanout histogram
system.membus.snoop_fanout::overflows               0      0.00%    100.00% # Request fanout histogram
system.membus.snoop_fanout::min_value               0                       # Request fanout histogram
system.membus.snoop_fanout::max_value               0                       # Request fanout histogram
system.membus.snoop_fanout::total               13662                       # Request fanout histogram
system.membus.reqLayer2.occupancy            11464310                       # Layer occupancy (ticks)
system.membus.reqLayer2.utilization               1.0                       # Layer utilization (%)
system.membus.respLayer0.occupancy           29649390                       # Layer occupancy (ticks)
system.membus.respLayer0.utilization              2.6                       # Layer utilization (%)
system.l2bus.pwrStateResidencyTicks::UNDEFINED   1159428800                       # Cumulative time (in ticks) in various power states
system.l2bus.trans_dist::ReadResp               18032                       # Transaction distribution
system.l2bus.trans_dist::WritebackDirty          4172                       # Transaction distribution
system.l2bus.trans_dist::CleanEvict             24284                       # Transaction distribution
system.l2bus.trans_dist::HardPFReq               1034                       # Transaction distribution
system.l2bus.trans_dist::ReadExReq               2079                       # Transaction distribution
system.l2bus.trans_dist::ReadExResp              2079                       # Transaction distribution
system.l2bus.trans_dist::ReadSharedReq          18032                       # Transaction distribution
system.l2bus.pkt_count_system.cpu.icache.mem_side::system.l2cache.cpu_side         9087                       # Packet count per connected master and slave (bytes)
system.l2bus.pkt_count_system.cpu.dcache.mem_side::system.l2cache.cpu_side        49964                       # Packet count per connected master and slave (bytes)
system.l2bus.pkt_count::total                   59051                       # Packet count per connected master and slave (bytes)
system.l2bus.pkt_size_system.cpu.icache.mem_side::system.l2cache.cpu_side       199232                       # Cumulative packet size per connected master and slave (bytes)
system.l2bus.pkt_size_system.cpu.dcache.mem_side::system.l2cache.cpu_side      1268352                       # Cumulative packet size per connected master and slave (bytes)
system.l2bus.pkt_size::total                  1467584                       # Cumulative packet size per connected master and slave (bytes)
system.l2bus.snoops                             10661                       # Total snoops (count)
system.l2bus.snoopTraffic                       86528                       # Total snoop traffic (bytes)
system.l2bus.snoop_fanout::samples              30770                       # Request fanout histogram
system.l2bus.snoop_fanout::mean              0.014657                       # Request fanout histogram
system.l2bus.snoop_fanout::stdev             0.120178                       # Request fanout histogram
system.l2bus.snoop_fanout::underflows               0      0.00%      0.00% # Request fanout histogram
system.l2bus.snoop_fanout::0                    30319     98.53%     98.53% # Request fanout histogram
system.l2bus.snoop_fanout::1                      451      1.47%    100.00% # Request fanout histogram
system.l2bus.snoop_fanout::2                        0      0.00%    100.00% # Request fanout histogram
system.l2bus.snoop_fanout::overflows                0      0.00%    100.00% # Request fanout histogram
system.l2bus.snoop_fanout::min_value                0                       # Request fanout histogram
system.l2bus.snoop_fanout::max_value                1                       # Request fanout histogram
system.l2bus.snoop_fanout::total                30770                       # Request fanout histogram
system.l2bus.respLayer1.occupancy            20396397                       # Layer occupancy (ticks)
system.l2bus.respLayer1.utilization               1.8                       # Layer utilization (%)
system.l2bus.reqLayer0.occupancy             19204906                       # Layer occupancy (ticks)
system.l2bus.reqLayer0.utilization                1.7                       # Layer utilization (%)
system.l2bus.respLayer0.occupancy             3738000                       # Layer occupancy (ticks)
system.l2bus.respLayer0.utilization               0.3                       # Layer utilization (%)
system.clk_domain.clock                           400                       # Clock period in ticks
system.clk_domain.voltage_domain.voltage            1                       # Voltage in Volts
system.cpu.pwrStateResidencyTicks::ON      1159428800                       # Cumulative time (in ticks) in various power states
system.cpu.icache.pwrStateResidencyTicks::UNDEFINED   1159428800                       # Cumulative time (in ticks) in various power states
system.cpu.icache.demand_hits::.cpu.inst       267059                       # number of demand (read+write) hits
system.cpu.icache.demand_hits::total           267059                       # number of demand (read+write) hits
system.cpu.icache.overall_hits::.cpu.inst       267059                       # number of overall hits
system.cpu.icache.overall_hits::total          267059                       # number of overall hits
system.cpu.icache.demand_misses::.cpu.inst         3862                       # number of demand (read+write) misses
system.cpu.icache.demand_misses::total           3862                       # number of demand (read+write) misses
system.cpu.icache.overall_misses::.cpu.inst         3862                       # number of overall misses
system.cpu.icache.overall_misses::total          3862                       # number of overall misses
system.cpu.icache.demand_miss_latency::.cpu.inst    183983600                       # number of demand (read+write) miss cycles
system.cpu.icache.demand_miss_latency::total    183983600                       # number of demand (read+write) miss cycles
system.cpu.icache.overall_miss_latency::.cpu.inst    183983600                       # number of overall miss cycles
system.cpu.icache.overall_miss_latency::total    183983600                       # number of overall miss cycles
system.cpu.icache.demand_accesses::.cpu.inst       270921                       # number of demand (read+write) accesses
system.cpu.icache.demand_accesses::total       270921                       # number of demand (read+write) accesses
system.cpu.icache.overall_accesses::.cpu.inst       270921                       # number of overall (read+write) accesses
system.cpu.icache.overall_accesses::total       270921                       # number of overall (read+write) accesses
system.cpu.icache.demand_miss_rate::.cpu.inst     0.014255                       # miss rate for demand accesses
system.cpu.icache.demand_miss_rate::total     0.014255                       # miss rate for demand accesses
system.cpu.icache.overall_miss_rate::.cpu.inst     0.014255                       # miss rate for overall accesses
system.cpu.icache.overall_miss_rate::total     0.014255                       # miss rate for overall accesses
system.cpu.icache.demand_avg_miss_latency::.cpu.inst 47639.461419                       # average overall miss latency
system.cpu.icache.demand_avg_miss_latency::total 47639.461419                       # average overall miss latency
system.cpu.icache.overall_avg_miss_latency::.cpu.inst 47639.461419                       # average overall miss latency
system.cpu.icache.overall_avg_miss_latency::total 47639.461419                       # average overall miss latency
system.cpu.icache.blocked_cycles::no_mshrs          132                       # number of cycles access was blocked
system.cpu.icache.blocked_cycles::no_targets            0                       # number of cycles access was blocked
system.cpu.icache.blocked::no_mshrs                 7                       # number of cycles access was blocked
system.cpu.icache.blocked::no_targets               0                       # number of cycles access was blocked
system.cpu.icache.avg_blocked_cycles::no_mshrs    18.857143                       # average number of cycles each access was blocked
system.cpu.icache.avg_blocked_cycles::no_targets          nan                       # average number of cycles each access was blocked
system.cpu.icache.demand_mshr_hits::.cpu.inst          747                       # number of demand (read+write) MSHR hits
system.cpu.icache.demand_mshr_hits::total          747                       # number of demand (read+write) MSHR hits
system.cpu.icache.overall_mshr_hits::.cpu.inst          747                       # number of overall MSHR hits
system.cpu.icache.overall_mshr_hits::total          747                       # number of overall MSHR hits
system.cpu.icache.demand_mshr_misses::.cpu.inst         3115                       # number of demand (read+write) MSHR misses
system.cpu.icache.demand_mshr_misses::total         3115                       # number of demand (read+write) MSHR misses
system.cpu.icache.overall_mshr_misses::.cpu.inst         3115                       # number of overall MSHR misses
system.cpu.icache.overall_mshr_misses::total         3115                       # number of overall MSHR misses
system.cpu.icache.demand_mshr_miss_latency::.cpu.inst    147352000                       # number of demand (read+write) MSHR miss cycles
system.cpu.icache.demand_mshr_miss_latency::total    147352000                       # number of demand (read+write) MSHR miss cycles
system.cpu.icache.overall_mshr_miss_latency::.cpu.inst    147352000                       # number of overall MSHR miss cycles
system.cpu.icache.overall_mshr_miss_latency::total    147352000                       # number of overall MSHR miss cycles
system.cpu.icache.demand_mshr_miss_rate::.cpu.inst     0.011498                       # mshr miss rate for demand accesses
system.cpu.icache.demand_mshr_miss_rate::total     0.011498                       # mshr miss rate for demand accesses
system.cpu.icache.overall_mshr_miss_rate::.cpu.inst     0.011498                       # mshr miss rate for overall accesses
system.cpu.icache.overall_mshr_miss_rate::total     0.011498                       # mshr miss rate for overall accesses
system.cpu.icache.demand_avg_mshr_miss_latency::.cpu.inst 47304.012841                       # average overall mshr miss latency
system.cpu.icache.demand_avg_mshr_miss_latency::total 47304.012841                       # average overall mshr miss latency
system.cpu.icache.overall_avg_mshr_miss_latency::.cpu.inst 47304.012841                       # average overall mshr miss latency
system.cpu.icache.overall_avg_mshr_miss_latency::total 47304.012841                       # average overall mshr miss latency
system.cpu.icache.replacements                   2859                       # number of replacements
system.cpu.icache.ReadReq_hits::.cpu.inst       267059                       # number of ReadReq hits
system.cpu.icache.ReadReq_hits::total          267059                       # number of ReadReq hits
system.cpu.icache.ReadReq_misses::.cpu.inst         3862                       # number of ReadReq misses
system.cpu.icache.ReadReq_misses::total          3862                       # number of ReadReq misses
system.cpu.icache.ReadReq_miss_latency::.cpu.inst    183983600                       # number of ReadReq miss cycles
system.cpu.icache.ReadReq_miss_latency::total    183983600                       # number of ReadReq miss cycles
system.cpu.icache.ReadReq_accesses::.cpu.inst       270921                       # number of ReadReq accesses(hits+misses)
system.cpu.icache.ReadReq_accesses::total       270921                       # number of ReadReq accesses(hits+misses)
system.cpu.icache.ReadReq_miss_rate::.cpu.inst     0.014255                       # miss rate for ReadReq accesses
system.cpu.icache.ReadReq_miss_rate::total     0.014255                       # miss rate for ReadReq accesses
system.cpu.icache.ReadReq_avg_miss_latency::.cpu.inst 47639.461419                       # average ReadReq miss latency
system.cpu.icache.ReadReq_avg_miss_latency::total 47639.461419                       # average ReadReq miss latency
system.cpu.icache.ReadReq_mshr_hits::.cpu.inst          747                       # number of ReadReq MSHR hits
system.cpu.icache.ReadReq_mshr_hits::total          747                       # number of ReadReq MSHR hits
system.cpu.icache.ReadReq_mshr_misses::.cpu.inst         3115                       # number of ReadReq MSHR misses
system.cpu.icache.ReadReq_mshr_misses::total         3115                       # number of ReadReq MSHR misses
system.cpu.icache.ReadReq_mshr_miss_latency::.cpu.inst    147352000                       # number of ReadReq MSHR miss cycles
system.cpu.icache.ReadReq_mshr_miss_latency::total    147352000                       # number of ReadReq MSHR miss cycles
system.cpu.icache.ReadReq_mshr_miss_rate::.cpu.inst     0.011498                       # mshr miss rate for ReadReq accesses
system.cpu.icache.ReadReq_mshr_miss_rate::total     0.011498                       # mshr miss rate for ReadReq accesses
system.cpu.icache.ReadReq_avg_mshr_miss_latency::.cpu.inst 47304.012841                       # average ReadReq mshr miss latency
system.cpu.icache.ReadReq_avg_mshr_miss_latency::total 47304.012841                       # average ReadReq mshr miss latency
system.cpu.icache.prefetcher.pwrStateResidencyTicks::UNDEFINED   1159428800                       # Cumulative time (in ticks) in various power states
system.cpu.icache.tags.pwrStateResidencyTicks::UNDEFINED   1159428800                       # Cumulative time (in ticks) in various power states
system.cpu.icache.tags.tagsinuse           253.600483                       # Cycle average of tags in use
system.cpu.icache.tags.total_refs              244411                       # Total number of references to valid blocks.
system.cpu.icache.tags.sampled_refs              2859                       # Sample count of references to valid blocks.
system.cpu.icache.tags.avg_refs             85.488283                       # Average number of references to valid blocks.
system.cpu.icache.tags.warmup_cycle             66400                       # Cycle when the warmup percentage was hit.
system.cpu.icache.tags.occ_blocks::.cpu.inst   253.600483                       # Average occupied blocks per requestor
system.cpu.icache.tags.occ_percent::.cpu.inst     0.990627                       # Average percentage of cache occupancy
system.cpu.icache.tags.occ_percent::total     0.990627                       # Average percentage of cache occupancy
system.cpu.icache.tags.occ_task_id_blocks::1024          256                       # Occupied blocks per task id
system.cpu.icache.tags.age_task_id_blocks_1024::0           78                       # Occupied blocks per task id
system.cpu.icache.tags.age_task_id_blocks_1024::1          121                       # Occupied blocks per task id
system.cpu.icache.tags.age_task_id_blocks_1024::2           54                       # Occupied blocks per task id
system.cpu.icache.tags.age_task_id_blocks_1024::3            3                       # Occupied blocks per task id
system.cpu.icache.tags.occ_task_id_percent::1024            1                       # Percentage of cache occupancy per task id
system.cpu.icache.tags.tag_accesses            544957                       # Number of tag accesses
system.cpu.icache.tags.data_accesses           544957                       # Number of data accesses
system.cpu.dtb.walker.pwrStateResidencyTicks::UNDEFINED   1159428800                       # Cumulative time (in ticks) in various power states
system.cpu.interrupts.clk_domain.clock           6400                       # Clock period in ticks
system.cpu.itb.walker.pwrStateResidencyTicks::UNDEFINED   1159428800                       # Cumulative time (in ticks) in various power states
system.cpu.dcache.pwrStateResidencyTicks::UNDEFINED   1159428800                       # Cumulative time (in ticks) in various power states
system.cpu.dcache.demand_hits::.cpu.data       766587                       # number of demand (read+write) hits
system.cpu.dcache.demand_hits::total           766587                       # number of demand (read+write) hits
system.cpu.dcache.overall_hits::.cpu.data       766587                       # number of overall hits
system.cpu.dcache.overall_hits::total          766587                       # number of overall hits
system.cpu.dcache.demand_misses::.cpu.data        35842                       # number of demand (read+write) misses
system.cpu.dcache.demand_misses::total          35842                       # number of demand (read+write) misses
system.cpu.dcache.overall_misses::.cpu.data        35842                       # number of overall misses
system.cpu.dcache.overall_misses::total         35842                       # number of overall misses
system.cpu.dcache.demand_miss_latency::.cpu.data   1750106397                       # number of demand (read+write) miss cycles
system.cpu.dcache.demand_miss_latency::total   1750106397                       # number of demand (read+write) miss cycles
system.cpu.dcache.overall_miss_latency::.cpu.data   1750106397                       # number of overall miss cycles
system.cpu.dcache.overall_miss_latency::total   1750106397                       # number of overall miss cycles
system.cpu.dcache.demand_accesses::.cpu.data       802429                       # number of demand (read+write) accesses
system.cpu.dcache.demand_accesses::total       802429                       # number of demand (read+write) accesses
system.cpu.dcache.overall_accesses::.cpu.data       802429                       # number of overall (read+write) accesses
system.cpu.dcache.overall_accesses::total       802429                       # number of overall (read+write) accesses
system.cpu.dcache.demand_miss_rate::.cpu.data     0.044667                       # miss rate for demand accesses
system.cpu.dcache.demand_miss_rate::total     0.044667                       # miss rate for demand accesses
system.cpu.dcache.overall_miss_rate::.cpu.data     0.044667                       # miss rate for overall accesses
system.cpu.dcache.overall_miss_rate::total     0.044667                       # miss rate for overall accesses
system.cpu.dcache.demand_avg_miss_latency::.cpu.data 48828.368869                       # average overall miss latency
system.cpu.dcache.demand_avg_miss_latency::total 48828.368869                       # average overall miss latency
system.cpu.dcache.overall_avg_miss_latency::.cpu.data 48828.368869                       # average overall miss latency
system.cpu.dcache.overall_avg_miss_latency::total 48828.368869                       # average overall miss latency
system.cpu.dcache.blocked_cycles::no_mshrs        29665                       # number of cycles access was blocked
system.cpu.dcache.blocked_cycles::no_targets          138                       # number of cycles access was blocked
system.cpu.dcache.blocked::no_mshrs               773                       # number of cycles access was blocked
system.cpu.dcache.blocked::no_targets               1                       # number of cycles access was blocked
system.cpu.dcache.avg_blocked_cycles::no_mshrs    38.376455                       # average number of cycles each access was blocked
system.cpu.dcache.avg_blocked_cycles::no_targets          138                       # average number of cycles each access was blocked
system.cpu.dcache.unused_prefetches              1774                       # number of HardPF blocks evicted w/o reference
system.cpu.dcache.writebacks::.writebacks         2822                       # number of writebacks
system.cpu.dcache.writebacks::total              2822                       # number of writebacks
system.cpu.dcache.demand_mshr_hits::.cpu.data        23037                       # number of demand (read+write) MSHR hits
system.cpu.dcache.demand_mshr_hits::total        23037                       # number of demand (read+write) MSHR hits
system.cpu.dcache.overall_mshr_hits::.cpu.data        23037                       # number of overall MSHR hits
system.cpu.dcache.overall_mshr_hits::total        23037                       # number of overall MSHR hits
system.cpu.dcache.demand_mshr_misses::.cpu.data        12805                       # number of demand (read+write) MSHR misses
system.cpu.dcache.demand_mshr_misses::total        12805                       # number of demand (read+write) MSHR misses
system.cpu.dcache.overall_mshr_misses::.cpu.data        12805                       # number of overall MSHR misses
system.cpu.dcache.overall_mshr_misses::.cpu.dcache.prefetcher         4191                       # number of overall MSHR misses
system.cpu.dcache.overall_mshr_misses::total        16996                       # number of overall MSHR misses
system.cpu.dcache.demand_mshr_miss_latency::.cpu.data    593872397                       # number of demand (read+write) MSHR miss cycles
system.cpu.dcache.demand_mshr_miss_latency::total    593872397                       # number of demand (read+write) MSHR miss cycles
system.cpu.dcache.overall_mshr_miss_latency::.cpu.data    593872397                       # number of overall MSHR miss cycles
system.cpu.dcache.overall_mshr_miss_latency::.cpu.dcache.prefetcher    237624401                       # number of overall MSHR miss cycles
system.cpu.dcache.overall_mshr_miss_latency::total    831496798                       # number of overall MSHR miss cycles
system.cpu.dcache.demand_mshr_miss_rate::.cpu.data     0.015958                       # mshr miss rate for demand accesses
system.cpu.dcache.demand_mshr_miss_rate::total     0.015958                       # mshr miss rate for demand accesses
system.cpu.dcache.overall_mshr_miss_rate::.cpu.data     0.015958                       # mshr miss rate for overall accesses
system.cpu.dcache.overall_mshr_miss_rate::.cpu.dcache.prefetcher          inf                       # mshr miss rate for overall accesses
system.cpu.dcache.overall_mshr_miss_rate::total     0.021181                       # mshr miss rate for overall accesses
system.cpu.dcache.demand_avg_mshr_miss_latency::.cpu.data 46378.164545                       # average overall mshr miss latency
system.cpu.dcache.demand_avg_mshr_miss_latency::total 46378.164545                       # average overall mshr miss latency
system.cpu.dcache.overall_avg_mshr_miss_latency::.cpu.data 46378.164545                       # average overall mshr miss latency
system.cpu.dcache.overall_avg_mshr_miss_latency::.cpu.dcache.prefetcher 56698.735624                       # average overall mshr miss latency
system.cpu.dcache.overall_avg_mshr_miss_latency::total 48923.087668                       # average overall mshr miss latency
system.cpu.dcache.replacements                  15972                       # number of replacements
system.cpu.dcache.ReadReq_hits::.cpu.data       565217                       # number of ReadReq hits
system.cpu.dcache.ReadReq_hits::total          565217                       # number of ReadReq hits
system.cpu.dcache.ReadReq_misses::.cpu.data        33736                       # number of ReadReq misses
system.cpu.dcache.ReadReq_misses::total         33736                       # number of ReadReq misses
system.cpu.dcache.ReadReq_miss_latency::.cpu.data   1645609600                       # number of ReadReq miss cycles
system.cpu.dcache.ReadReq_miss_latency::total   1645609600                       # number of ReadReq miss cycles
system.cpu.dcache.ReadReq_accesses::.cpu.data       598953                       # number of ReadReq accesses(hits+misses)
system.cpu.dcache.ReadReq_accesses::total       598953                       # number of ReadReq accesses(hits+misses)
system.cpu.dcache.ReadReq_miss_rate::.cpu.data     0.056325                       # miss rate for ReadReq accesses
system.cpu.dcache.ReadReq_miss_rate::total     0.056325                       # miss rate for ReadReq accesses
system.cpu.dcache.ReadReq_avg_miss_latency::.cpu.data 48779.037230                       # average ReadReq miss latency
system.cpu.dcache.ReadReq_avg_miss_latency::total 48779.037230                       # average ReadReq miss latency
system.cpu.dcache.ReadReq_mshr_hits::.cpu.data        23010                       # number of ReadReq MSHR hits
system.cpu.dcache.ReadReq_mshr_hits::total        23010                       # number of ReadReq MSHR hits
system.cpu.dcache.ReadReq_mshr_misses::.cpu.data        10726                       # number of ReadReq MSHR misses
system.cpu.dcache.ReadReq_mshr_misses::total        10726                       # number of ReadReq MSHR misses
system.cpu.dcache.ReadReq_mshr_miss_latency::.cpu.data    492335200                       # number of ReadReq MSHR miss cycles
system.cpu.dcache.ReadReq_mshr_miss_latency::total    492335200                       # number of ReadReq MSHR miss cycles
system.cpu.dcache.ReadReq_mshr_miss_rate::.cpu.data     0.017908                       # mshr miss rate for ReadReq accesses
system.cpu.dcache.ReadReq_mshr_miss_rate::total     0.017908                       # mshr miss rate for ReadReq accesses
system.cpu.dcache.ReadReq_avg_mshr_miss_latency::.cpu.data 45901.100131                       # average ReadReq mshr miss latency
system.cpu.dcache.ReadReq_avg_mshr_miss_latency::total 45901.100131                       # average ReadReq mshr miss latency
system.cpu.dcache.WriteReq_hits::.cpu.data       201370                       # number of WriteReq hits
system.cpu.dcache.WriteReq_hits::total         201370                       # number of WriteReq hits
system.cpu.dcache.WriteReq_misses::.cpu.data         2106                       # number of WriteReq misses
system.cpu.dcache.WriteReq_misses::total         2106                       # number of WriteReq misses
system.cpu.dcache.WriteReq_miss_latency::.cpu.data    104496797                       # number of WriteReq miss cycles
system.cpu.dcache.WriteReq_miss_latency::total    104496797                       # number of WriteReq miss cycles
system.cpu.dcache.WriteReq_accesses::.cpu.data       203476                       # number of WriteReq accesses(hits+misses)
system.cpu.dcache.WriteReq_accesses::total       203476                       # number of WriteReq accesses(hits+misses)
system.cpu.dcache.WriteReq_miss_rate::.cpu.data     0.010350                       # miss rate for WriteReq accesses
system.cpu.dcache.WriteReq_miss_rate::total     0.010350                       # miss rate for WriteReq accesses
system.cpu.dcache.WriteReq_avg_miss_latency::.cpu.data 49618.612061                       # average WriteReq miss latency
system.cpu.dcache.WriteReq_avg_miss_latency::total 49618.612061                       # average WriteReq miss latency
system.cpu.dcache.WriteReq_mshr_hits::.cpu.data           27                       # number of WriteReq MSHR hits
system.cpu.dcache.WriteReq_mshr_hits::total           27                       # number of WriteReq MSHR hits
system.cpu.dcache.WriteReq_mshr_misses::.cpu.data         2079                       # number of WriteReq MSHR misses
system.cpu.dcache.WriteReq_mshr_misses::total         2079                       # number of WriteReq MSHR misses
system.cpu.dcache.WriteReq_mshr_miss_latency::.cpu.data    101537197                       # number of WriteReq MSHR miss cycles
[...]
system.l2cache.demand_mshr_misses::.cpu.data           89                       # number of demand (read+write) MSHR misses
system.l2cache.demand_mshr_misses::.cpu.dcache.prefetcher           24                       # number of demand (read+write) MSHR misses
system.l2cache.demand_mshr_misses::total          265                       # number of demand (read+write) MSHR misses
system.l2cache.overall_mshr_misses::.cpu.inst          152                       # number of overall MSHR misses
system.l2cache.overall_mshr_misses::.cpu.data           89                       # number of overall MSHR misses
system.l2cache.overall_mshr_misses::.cpu.dcache.prefetcher           24                       # number of overall MSHR misses
system.l2cache.overall_mshr_misses::total          265                       # number of overall MSHR misses
system.l2cache.demand_mshr_miss_latency::.cpu.inst      9211200                       # number of demand (read+write) MSHR miss cycles
system.l2cache.demand_mshr_miss_latency::.cpu.data      5357600                       # number of demand (read+write) MSHR miss cycles
system.l2cache.demand_mshr_miss_latency::.cpu.dcache.prefetcher      1832374                       # number of demand (read+write) MSHR miss cycles
system.l2cache.demand_mshr_miss_latency::total     16401174                       # number of demand (read+write) MSHR miss cycles
system.l2cache.overall_mshr_miss_latency::.cpu.inst      9211200                       # number of overall MSHR miss cycles
system.l2cache.overall_mshr_miss_latency::.cpu.data      5357600                       # number of overall MSHR miss cycles
system.l2cache.overall_mshr_miss_latency::.cpu.dcache.prefetcher      1832374                       # number of overall MSHR miss cycles
system.l2cache.overall_mshr_miss_latency::total     16401174                       # number of overall MSHR miss cycles
system.l2cache.demand_mshr_miss_rate::.cpu.inst     0.376238                       # mshr miss rate for demand accesses
system.l2cache.demand_mshr_miss_rate::.cpu.data     0.402715                       # mshr miss rate for demand accesses
system.l2cache.demand_mshr_miss_rate::.cpu.dcache.prefetcher     0.827586                       # mshr miss rate for demand accesses
system.l2cache.demand_mshr_miss_rate::total     0.405199                       # mshr miss rate for demand accesses
system.l2cache.overall_mshr_miss_rate::.cpu.inst     0.376238                       # mshr miss rate for overall accesses
system.l2cache.overall_mshr_miss_rate::.cpu.data     0.402715                       # mshr miss rate for overall accesses
system.l2cache.overall_mshr_miss_rate::.cpu.dcache.prefetcher     0.827586                       # mshr miss rate for overall accesses
system.l2cache.overall_mshr_miss_rate::total     0.405199                       # mshr miss rate for overall accesses
system.l2cache.demand_avg_mshr_miss_latency::.cpu.inst        60600                       # average overall mshr miss latency
system.l2cache.demand_avg_mshr_miss_latency::.cpu.data 60197.752809                       # average overall mshr miss latency
system.l2cache.demand_avg_mshr_miss_latency::.cpu.dcache.prefetcher 76348.916667                       # average overall mshr miss latency
system.l2cache.demand_avg_mshr_miss_latency::total 61891.222642                       # average overall mshr miss latency
system.l2cache.overall_avg_mshr_miss_latency::.cpu.inst        60600                       # average overall mshr miss latency
system.l2cache.overall_avg_mshr_miss_latency::.cpu.data 60197.752809                       # average overall mshr miss latency
system.l2cache.overall_avg_mshr_miss_latency::.cpu.dcache.prefetcher 76348.916667                       # average overall mshr miss latency
system.l2cache.overall_avg_mshr_miss_latency::total 61891.222642                       # average overall mshr miss latency
system.l2cache.replacements                       272                       # number of replacements
system.l2cache.WritebackDirty_hits::.writebacks          151                       # number of WritebackDirty hits
system.l2cache.WritebackDirty_hits::total          151                       # number of WritebackDirty hits
system.l2cache.WritebackDirty_accesses::.writebacks          151                       # number of WritebackDirty accesses(hits+misses)
system.l2cache.WritebackDirty_accesses::total          151                       # number of WritebackDirty accesses(hits+misses)
system.l2cache.CleanEvict_mshr_misses::.writebacks           15                       # number of CleanEvict MSHR misses
system.l2cache.CleanEvict_mshr_misses::total           15                       # number of CleanEvict MSHR misses
system.l2cache.CleanEvict_mshr_miss_rate::.writebacks          inf                       # mshr miss rate for CleanEvict accesses
system.l2cache.CleanEvict_mshr_miss_rate::total          inf                       # mshr miss rate for CleanEvict accesses
system.l2cache.ReadExReq_hits::.cpu.data            5                       # number of ReadExReq hits
system.l2cache.ReadExReq_hits::total                5                       # number of ReadExReq hits
system.l2cache.ReadExReq_misses::.cpu.data            4                       # number of ReadExReq misses
system.l2cache.ReadExReq_misses::total              4                       # number of ReadExReq misses
system.l2cache.ReadExReq_miss_latency::.cpu.data       300400                       # number of ReadExReq miss cycles
system.l2cache.ReadExReq_miss_latency::total       300400                       # number of ReadExReq miss cycles
system.l2cache.ReadExReq_accesses::.cpu.data            9                       # number of ReadExReq accesses(hits+misses)
system.l2cache.ReadExReq_accesses::total            9                       # number of ReadExReq accesses(hits+misses)
system.l2cache.ReadExReq_miss_rate::.cpu.data     0.444444                       # miss rate for ReadExReq accesses
system.l2cache.ReadExReq_miss_rate::total     0.444444                       # miss rate for ReadExReq accesses
system.l2cache.ReadExReq_avg_miss_latency::.cpu.data        75100                       # average ReadExReq miss latency
system.l2cache.ReadExReq_avg_miss_latency::total        75100                       # average ReadExReq miss latency
system.l2cache.ReadExReq_mshr_misses::.cpu.data            4                       # number of ReadExReq MSHR misses
system.l2cache.ReadExReq_mshr_misses::total            4                       # number of ReadExReq MSHR misses
system.l2cache.ReadExReq_mshr_miss_latency::.cpu.data       268400                       # number of ReadExReq MSHR miss cycles
system.l2cache.ReadExReq_mshr_miss_latency::total       268400                       # number of ReadExReq MSHR miss cycles
system.l2cache.ReadExReq_mshr_miss_rate::.cpu.data     0.444444                       # mshr miss rate for ReadExReq accesses
system.l2cache.ReadExReq_mshr_miss_rate::total     0.444444                       # mshr miss rate for ReadExReq accesses
system.l2cache.ReadExReq_avg_mshr_miss_latency::.cpu.data        67100                       # average ReadExReq mshr miss latency
system.l2cache.ReadExReq_avg_mshr_miss_latency::total        67100                       # average ReadExReq mshr miss latency
system.l2cache.ReadSharedReq_hits::.cpu.inst          252                       # number of ReadSharedReq hits
system.l2cache.ReadSharedReq_hits::.cpu.data          127                       # number of ReadSharedReq hits
system.l2cache.ReadSharedReq_hits::.cpu.dcache.prefetcher            5                       # number of ReadSharedReq hits
system.l2cache.ReadSharedReq_hits::total          384                       # number of ReadSharedReq hits
system.l2cache.ReadSharedReq_misses::.cpu.inst          152                       # number of ReadSharedReq misses
system.l2cache.ReadSharedReq_misses::.cpu.data           85                       # number of ReadSharedReq misses
system.l2cache.ReadSharedReq_misses::.cpu.dcache.prefetcher           24                       # number of ReadSharedReq misses
system.l2cache.ReadSharedReq_misses::total          261                       # number of ReadSharedReq misses
system.l2cache.ReadSharedReq_miss_latency::.cpu.inst     10427200                       # number of ReadSharedReq miss cycles
system.l2cache.ReadSharedReq_miss_latency::.cpu.data      5769200                       # number of ReadSharedReq miss cycles
system.l2cache.ReadSharedReq_miss_latency::.cpu.dcache.prefetcher      2024374                       # number of ReadSharedReq miss cycles
system.l2cache.ReadSharedReq_miss_latency::total     18220774                       # number of ReadSharedReq miss cycles
system.l2cache.ReadSharedReq_accesses::.cpu.inst          404                       # number of ReadSharedReq accesses(hits+misses)
system.l2cache.ReadSharedReq_accesses::.cpu.data          212                       # number of ReadSharedReq accesses(hits+misses)
system.l2cache.ReadSharedReq_accesses::.cpu.dcache.prefetcher           29                       # number of ReadSharedReq accesses(hits+misses)
system.l2cache.ReadSharedReq_accesses::total          645                       # number of ReadSharedReq accesses(hits+misses)
system.l2cache.ReadSharedReq_miss_rate::.cpu.inst     0.376238                       # miss rate for ReadSharedReq accesses
system.l2cache.ReadSharedReq_miss_rate::.cpu.data     0.400943                       # miss rate for ReadSharedReq accesses
system.l2cache.ReadSharedReq_miss_rate::.cpu.dcache.prefetcher     0.827586                       # miss rate for ReadSharedReq accesses
system.l2cache.ReadSharedReq_miss_rate::total     0.404651                       # miss rate for ReadSharedReq accesses
system.l2cache.ReadSharedReq_avg_miss_latency::.cpu.inst        68600                       # average ReadSharedReq miss latency
system.l2cache.ReadSharedReq_avg_miss_latency::.cpu.data 67872.941176                       # average ReadSharedReq miss latency
system.l2cache.ReadSharedReq_avg_miss_latency::.cpu.dcache.prefetcher 84348.916667                       # average ReadSharedReq miss latency
system.l2cache.ReadSharedReq_avg_miss_latency::total 69811.394636                       # average ReadSharedReq miss latency
system.l2cache.ReadSharedReq_mshr_misses::.cpu.inst          152                       # number of ReadSharedReq MSHR misses
system.l2cache.ReadSharedReq_mshr_misses::.cpu.data           85                       # number of ReadSharedReq MSHR misses
system.l2cache.ReadSharedReq_mshr_misses::.cpu.dcache.prefetcher           24                       # number of ReadSharedReq MSHR misses
system.l2cache.ReadSharedReq_mshr_misses::total          261                       # number of ReadSharedReq MSHR misses
system.l2cache.ReadSharedReq_mshr_miss_latency::.cpu.inst      9211200                       # number of ReadSharedReq MSHR miss cycles
system.l2cache.ReadSharedReq_mshr_miss_latency::.cpu.data      5089200                       # number of ReadSharedReq MSHR miss cycles
system.l2cache.ReadSharedReq_mshr_miss_latency::.cpu.dcache.prefetcher      1832374                       # number of ReadSharedReq MSHR miss cycles
system.l2cache.ReadSharedReq_mshr_miss_latency::total     16132774                       # number of ReadSharedReq MSHR miss cycles
system.l2cache.ReadSharedReq_mshr_miss_rate::.cpu.inst     0.376238                       # mshr miss rate for ReadSharedReq accesses
system.l2cache.ReadSharedReq_mshr_miss_rate::.cpu.data     0.400943                       # mshr miss rate for ReadSharedReq accesses
system.l2cache.ReadSharedReq_mshr_miss_rate::.cpu.dcache.prefetcher     0.827586                       # mshr miss rate for ReadSharedReq accesses
system.l2cache.ReadSharedReq_mshr_miss_rate::total     0.404651                       # mshr miss rate for ReadSharedReq accesses
system.l2cache.ReadSharedReq_avg_mshr_miss_latency::.cpu.inst        60600                       # average ReadSharedReq mshr miss latency
system.l2cache.ReadSharedReq_avg_mshr_miss_latency::.cpu.data 59872.941176                       # average ReadSharedReq mshr miss latency
system.l2cache.ReadSharedReq_avg_mshr_miss_latency::.cpu.dcache.prefetcher 76348.916667                       # average ReadSharedReq mshr miss latency
system.l2cache.ReadSharedReq_avg_mshr_miss_latency::total 61811.394636                       # average ReadSharedReq mshr miss latency
system.l2cache.prefetcher.pwrStateResidencyTicks::UNDEFINED     80354400                       # Cumulative time (in ticks) in various power states
system.l2cache.tags.pwrStateResidencyTicks::UNDEFINED     80354400                       # Cumulative time (in ticks) in various power states
system.l2cache.tags.tagsinuse                    4096                       # Cycle average of tags in use
system.l2cache.tags.total_refs                  21267                       # Total number of references to valid blocks.
system.l2cache.tags.sampled_refs                 4368                       # Sample count of references to valid blocks.
system.l2cache.tags.avg_refs                 4.868819                       # Average number of references to valid blocks.
system.l2cache.tags.warmup_cycle                    0                       # Cycle when the warmup percentage was hit.
system.l2cache.tags.occ_blocks::.writebacks    49.409830                       # Average occupied blocks per requestor
system.l2cache.tags.occ_blocks::.cpu.inst  1042.263275                       # Average occupied blocks per requestor
system.l2cache.tags.occ_blocks::.cpu.data  1930.884715                       # Average occupied blocks per requestor
system.l2cache.tags.occ_blocks::.cpu.dcache.prefetcher   724.154306                       # Average occupied blocks per requestor
system.l2cache.tags.occ_blocks::.l2cache.prefetcher   349.287875                       # Average occupied blocks per requestor
system.l2cache.tags.occ_percent::.writebacks     0.012063                       # Average percentage of cache occupancy
system.l2cache.tags.occ_percent::.cpu.inst     0.254459                       # Average percentage of cache occupancy
system.l2cache.tags.occ_percent::.cpu.data     0.471407                       # Average percentage of cache occupancy
system.l2cache.tags.occ_percent::.cpu.dcache.prefetcher     0.176795                       # Average percentage of cache occupancy
system.l2cache.tags.occ_percent::.l2cache.prefetcher     0.085275                       # Average percentage of cache occupancy
system.l2cache.tags.occ_percent::total              1                       # Average percentage of cache occupancy
system.l2cache.tags.occ_task_id_blocks::1022         1030                       # Occupied blocks per task id
system.l2cache.tags.occ_task_id_blocks::1024         3066                       # Occupied blocks per task id
system.l2cache.tags.age_task_id_blocks_1022::0           10                       # Occupied blocks per task id
system.l2cache.tags.age_task_id_blocks_1022::1           14                       # Occupied blocks per task id
system.l2cache.tags.age_task_id_blocks_1022::2          956                       # Occupied blocks per task id
system.l2cache.tags.age_task_id_blocks_1022::3           50                       # Occupied blocks per task id
system.l2cache.tags.age_task_id_blocks_1024::0          174                       # Occupied blocks per task id
system.l2cache.tags.age_task_id_blocks_1024::1           76                       # Occupied blocks per task id
system.l2cache.tags.age_task_id_blocks_1024::2         2594                       # Occupied blocks per task id
system.l2cache.tags.age_task_id_blocks_1024::3          222                       # Occupied blocks per task id
system.l2cache.tags.occ_task_id_percent::1022     0.251465                       # Percentage of cache occupancy per task id
system.l2cache.tags.occ_task_id_percent::1024     0.748535                       # Percentage of cache occupancy per task id
system.l2cache.tags.tag_accesses                10736                       # Number of tag accesses
system.l2cache.tags.data_accesses               10736                       # Number of data accesses
system.mem_ctrl.pwrStateResidencyTicks::UNDEFINED     80354400                       # Cumulative time (in ticks) in various power states
system.mem_ctrl.bytes_read::.cpu.inst            9728                       # Number of bytes read from this memory
system.mem_ctrl.bytes_read::.cpu.data            5696                       # Number of bytes read from this memory
system.mem_ctrl.bytes_read::.cpu.dcache.prefetcher         1536                       # Number of bytes read from this memory
system.mem_ctrl.bytes_read::total               16960                       # Number of bytes read from this memory
system.mem_ctrl.bytes_inst_read::.cpu.inst         9728                       # Number of instructions bytes read from this memory
system.mem_ctrl.bytes_inst_read::total           9728                       # Number of instructions bytes read from this memory
system.mem_ctrl.bytes_written::.writebacks         1600                       # Number of bytes written to this memory
system.mem_ctrl.bytes_written::total             1600                       # Number of bytes written to this memory
system.mem_ctrl.num_reads::.cpu.inst              152                       # Number of read requests responded to by this memory
system.mem_ctrl.num_reads::.cpu.data               89                       # Number of read requests responded to by this memory
system.mem_ctrl.num_reads::.cpu.dcache.prefetcher           24                       # Number of read requests responded to by this memory
system.mem_ctrl.num_reads::total                  265                       # Number of read requests responded to by this memory
system.mem_ctrl.num_writes::.writebacks            25                       # Number of write requests responded to by this memory
system.mem_ctrl.num_writes::total                  25                       # Number of write requests responded to by this memory
system.mem_ctrl.bw_read::.cpu.inst          121063688                       # Total read bandwidth from this memory (bytes/s)
system.mem_ctrl.bw_read::.cpu.data           70885975                       # Total read bandwidth from this memory (bytes/s)
system.mem_ctrl.bw_read::.cpu.dcache.prefetcher     19115319                       # Total read bandwidth from this memory (bytes/s)
system.mem_ctrl.bw_read::total              211064982                       # Total read bandwidth from this memory (bytes/s)
system.mem_ctrl.bw_inst_read::.cpu.inst     121063688                       # Instruction read bandwidth from this memory (bytes/s)
system.mem_ctrl.bw_inst_read::total         121063688                       # Instruction read bandwidth from this memory (bytes/s)
system.mem_ctrl.bw_write::.writebacks        19911791                       # Write bandwidth from this memory (bytes/s)
system.mem_ctrl.bw_write::total              19911791                       # Write bandwidth from this memory (bytes/s)
system.mem_ctrl.bw_total::.writebacks        19911791                       # Total bandwidth to/from this memory (bytes/s)
system.mem_ctrl.bw_total::.cpu.inst         121063688                       # Total bandwidth to/from this memory (bytes/s)
system.mem_ctrl.bw_total::.cpu.data          70885975                       # Total bandwidth to/from this memory (bytes/s)
system.mem_ctrl.bw_total::.cpu.dcache.prefetcher     19115319                       # Total bandwidth to/from this memory (bytes/s)
system.mem_ctrl.bw_total::total             230976773                       # Total bandwidth to/from this memory (bytes/s)

---------- End Simulation Statistics   ----------
