
---------- Begin Simulation Statistics ----------
final_tick                                 1101485200                       # Number of ticks from beginning of simulation (restored from checkpoints and never reset)
host_inst_rate                                 156567                       # Simulator instruction rate (inst/s)
host_mem_usage                                4406828                       # Number of bytes of host memory used
host_op_rate                                   272682                       # Simulator op (including micro ops) rate (op/s)
host_seconds                                    13.36                       # Real time elapsed on the host
host_tick_rate                               82434232                       # Simulator tick rate (ticks/s)
sim_freq                                 1000000000000                       # Frequency of simulated ticks
sim_insts                                     2092035                       # Number of instructions simulated
sim_ops                                       3643574                       # Number of ops (including micro ops) simulated
sim_seconds                                  0.001101                       # Number of seconds simulated
sim_ticks                                  1101485200                       # Number of ticks simulated
system.cpu.branchPred.BTBCorrect                    0                       # Number of correct BTB predictions (this stat may not work properly.
system.cpu.branchPred.BTBHitPct              0.000000                       # BTB Hit Percentage
system.cpu.branchPred.BTBHits                       0                       # Number of BTB hits
system.cpu.branchPred.BTBLookups               440196                       # Number of BTB lookups
system.cpu.branchPred.RASInCorrect                  8                       # Number of incorrect RAS predictions.
system.cpu.branchPred.condIncorrect             24337                       # Number of conditional branches incorrect
system.cpu.branchPred.condPredicted            468261                       # Number of conditional branches predicted
system.cpu.branchPred.indirectHits             240616                       # Number of indirect target hits.
system.cpu.branchPred.indirectLookups          440196                       # Number of indirect predictor lookups.
system.cpu.branchPred.indirectMisses           199580                       # Number of indirect misses.
system.cpu.branchPred.lookups                  495345                       # Number of BP lookups
system.cpu.branchPred.usedRAS                   11670                       # Number of times the RAS was used to get a target.
system.cpu.branchPredindirectMispredicted        12477                       # Number of mispredicted indirect branches.
system.cpu.cc_regfile_reads                   2398760                       # number of cc regfile reads
system.cpu.cc_regfile_writes                  1953094                       # number of cc regfile writes
system.cpu.commit.amos                              0                       # Number of atomic instructions committed
system.cpu.commit.branchMispredicts             24444                       # The number of times a branch was mispredicted
system.cpu.commit.branches                     350159                       # Number of branches committed
system.cpu.commit.bw_lim_events                603811                       # number cycles where commit BW limit reached
system.cpu.commit.commitNonSpecStalls             751                       # The number of times commit has been forced to stall to communicate backwards
system.cpu.commit.commitSquashedInsts          888293                       # The number of squashed insts skipped by commit
system.cpu.commit.committedInsts              2092035                       # Number of instructions committed
system.cpu.commit.committedOps                3643574                       # Number of ops (including micro ops) committed
system.cpu.commit.committed_per_cycle::samples      2350230                       # Number of insts commited each cycle
system.cpu.commit.committed_per_cycle::mean     1.550305                       # Number of insts commited each cycle
system.cpu.commit.committed_per_cycle::stdev     1.723599                       # Number of insts commited each cycle
system.cpu.commit.committed_per_cycle::underflows            0      0.00%      0.00% # Number of insts commited each cycle
system.cpu.commit.committed_per_cycle::0      1156330     49.20%     49.20% # Number of insts commited each cycle
system.cpu.commit.committed_per_cycle::1       184304      7.84%     57.04% # Number of insts commited each cycle
system.cpu.commit.committed_per_cycle::2       173329      7.37%     64.42% # Number of insts commited each cycle
system.cpu.commit.committed_per_cycle::3       232456      9.89%     74.31% # Number of insts commited each cycle
system.cpu.commit.committed_per_cycle::4       603811     25.69%    100.00% # Number of insts commited each cycle
system.cpu.commit.committed_per_cycle::overflows            0      0.00%    100.00% # Number of insts commited each cycle
system.cpu.commit.committed_per_cycle::min_value            0                       # Number of insts commited each cycle
system.cpu.commit.committed_per_cycle::max_value            4                       # Number of insts commited each cycle
system.cpu.commit.committed_per_cycle::total      2350230                       # Number of insts commited each cycle
system.cpu.commit.fp_insts                      76554                       # Number of committed floating point instructions.
system.cpu.commit.function_calls                 9831                       # Number of function calls committed.
system.cpu.commit.int_insts                   3586555                       # Number of committed integer instructions.
system.cpu.commit.loads                        498148                       # Number of loads committed
system.cpu.commit.membars                           1                       # Number of memory barriers committed
system.cpu.commit.op_class_0::No_OpClass        20484      0.56%      0.56% # Class of committed instruction
system.cpu.commit.op_class_0::IntAlu          2865509     78.65%     79.21% # Class of committed instruction
system.cpu.commit.op_class_0::IntMult            1965      0.05%     79.26% # Class of committed instruction
system.cpu.commit.op_class_0::IntDiv            37399      1.03%     80.29% # Class of committed instruction
system.cpu.commit.op_class_0::FloatAdd           2981      0.08%     80.37% # Class of committed instruction
system.cpu.commit.op_class_0::FloatCmp              0      0.00%     80.37% # Class of committed instruction
system.cpu.commit.op_class_0::FloatCvt           1232      0.03%     80.40% # Class of committed instruction
system.cpu.commit.op_class_0::FloatMult             0      0.00%     80.40% # Class of committed instruction
system.cpu.commit.op_class_0::FloatMultAcc            0      0.00%     80.40% # Class of committed instruction
system.cpu.commit.op_class_0::FloatDiv              0      0.00%     80.40% # Class of committed instruction
system.cpu.commit.op_class_0::FloatMisc             0      0.00%     80.40% # Class of committed instruction
system.cpu.commit.op_class_0::FloatSqrt             0      0.00%     80.40% # Class of committed instruction
system.cpu.commit.op_class_0::SimdAdd            6216      0.17%     80.57% # Class of committed instruction
system.cpu.commit.op_class_0::SimdAddAcc            0      0.00%     80.57% # Class of committed instruction
system.cpu.commit.op_class_0::SimdAlu           11686      0.32%     80.90% # Class of committed instruction
system.cpu.commit.op_class_0::SimdCmp               0      0.00%     80.90% # Class of committed instruction
system.cpu.commit.op_class_0::SimdCvt           12638      0.35%     81.24% # Class of committed instruction
system.cpu.commit.op_class_0::SimdMisc           7690      0.21%     81.45% # Class of committed instruction
system.cpu.commit.op_class_0::SimdMult              0      0.00%     81.45% # Class of committed instruction
system.cpu.commit.op_class_0::SimdMultAcc            0      0.00%     81.45% # Class of committed instruction
system.cpu.commit.op_class_0::SimdShift          1088      0.03%     81.48% # Class of committed instruction
system.cpu.commit.op_class_0::SimdShiftAcc            0      0.00%     81.48% # Class of committed instruction
system.cpu.commit.op_class_0::SimdDiv               0      0.00%     81.48% # Class of committed instruction
system.cpu.commit.op_class_0::SimdSqrt              0      0.00%     81.48% # Class of committed instruction
system.cpu.commit.op_class_0::SimdFloatAdd            0      0.00%     81.48% # Class of committed instruction
system.cpu.commit.op_class_0::SimdFloatAlu            0      0.00%     81.48% # Class of committed instruction
system.cpu.commit.op_class_0::SimdFloatCmp            0      0.00%     81.48% # Class of committed instruction
system.cpu.commit.op_class_0::SimdFloatCvt            0      0.00%     81.48% # Class of committed instruction
system.cpu.commit.op_class_0::SimdFloatDiv            0      0.00%     81.48% # Class of committed instruction
system.cpu.commit.op_class_0::SimdFloatMisc            0      0.00%     81.48% # Class of committed instruction
system.cpu.commit.op_class_0::SimdFloatMult            0      0.00%     81.48% # Class of committed instruction
system.cpu.commit.op_class_0::SimdFloatMultAcc            0      0.00%     81.48% # Class of committed instruction
system.cpu.commit.op_class_0::SimdFloatSqrt            0      0.00%     81.48% # Class of committed instruction
system.cpu.commit.op_class_0::SimdReduceAdd            0      0.00%     81.48% # Class of committed instruction
system.cpu.commit.op_class_0::SimdReduceAlu            0      0.00%     81.48% # Class of committed instruction
system.cpu.commit.op_class_0::SimdReduceCmp            0      0.00%     81.48% # Class of committed instruction
system.cpu.commit.op_class_0::SimdFloatReduceAdd            0      0.00%     81.48% # Class of committed instruction
system.cpu.commit.op_class_0::SimdFloatReduceCmp            0      0.00%     81.48% # Class of committed instruction
system.cpu.commit.op_class_0::SimdAes               0      0.00%     81.48% # Class of committed instruction
system.cpu.commit.op_class_0::SimdAesMix            0      0.00%     81.48% # Class of committed instruction
system.cpu.commit.op_class_0::SimdSha1Hash            0      0.00%     81.48% # Class of committed instruction
system.cpu.commit.op_class_0::SimdSha1Hash2            0      0.00%     81.48% # Class of committed instruction
system.cpu.commit.op_class_0::SimdSha256Hash            0      0.00%     81.48% # Class of committed instruction
system.cpu.commit.op_class_0::SimdSha256Hash2            0      0.00%     81.48% # Class of committed instruction
system.cpu.commit.op_class_0::SimdShaSigma2            0      0.00%     81.48% # Class of committed instruction
system.cpu.commit.op_class_0::SimdShaSigma3            0      0.00%     81.48% # Class of committed instruction
system.cpu.commit.op_class_0::SimdPredAlu            0      0.00%     81.48% # Class of committed instruction
system.cpu.commit.op_class_0::MemRead          478586     13.14%     94.62% # Class of committed instruction
system.cpu.commit.op_class_0::MemWrite         164261      4.51%     99.13% # Class of committed instruction
system.cpu.commit.op_class_0::FloatMemRead        19562      0.54%     99.66% # Class of committed instruction
system.cpu.commit.op_class_0::FloatMemWrite        12277      0.34%    100.00% # Class of committed instruction
system.cpu.commit.op_class_0::IprAccess             0      0.00%    100.00% # Class of committed instruction
system.cpu.commit.op_class_0::InstPrefetch            0      0.00%    100.00% # Class of committed instruction
system.cpu.commit.op_class_0::total           3643574                       # Class of committed instruction
system.cpu.commit.refs                         674686                       # Number of memory references committed
system.cpu.commit.swp_count                         0                       # Number of s/w prefetches committed
system.cpu.commit.vec_insts                         0                       # Number of committed Vector instructions.
system.cpu.committedInsts                     2092035                       # Number of Instructions Simulated
system.cpu.committedOps                       3643574                       # Number of Ops (including micro ops) Simulated
system.cpu.cpi                               1.316285                       # CPI: Cycles Per Instruction
system.cpu.cpi_total                         1.316285                       # CPI: Total CPI of All Threads
system.cpu.dcache.prefetcher.num_hwpf_issued         8392                       # number of hwpf issued
system.cpu.dcache.prefetcher.pfBufferHit        35262                       # number of redundant prefetches already in prefetch queue
system.cpu.dcache.prefetcher.pfIdentified        50383                       # number of prefetch candidates identified
system.cpu.dcache.prefetcher.pfInCache              0                       # number of redundant prefetches already in cache/mshr dropped
system.cpu.dcache.prefetcher.pfRemovedFull            0                       # number of prefetches dropped due to prefetch queue size
system.cpu.dcache.prefetcher.pfSpanPage          4849                       # number of prefetches that crossed the page
system.cpu.decode.BlockedCycles               1021748                       # Number of cycles decode is blocked
system.cpu.decode.DecodedInsts                4748931                       # Number of instructions handled by decode
system.cpu.decode.IdleCycles                   301753                       # Number of cycles decode is idle
system.cpu.decode.RunCycles                   1155482                       # Number of cycles decode is running
system.cpu.decode.SquashCycles                  24519                       # Number of cycles decode is squashing
system.cpu.decode.UnblockCycles                 88973                       # Number of cycles decode is unblocking
system.cpu.dtb.rdAccesses                      582102                       # TLB accesses on read requests
system.cpu.dtb.rdMisses                          2090                       # TLB misses on read requests
system.cpu.dtb.wrAccesses                      196065                       # TLB accesses on write requests
system.cpu.dtb.wrMisses                           169                       # TLB misses on write requests
system.cpu.fetch.Branches                      495345                       # Number of branches that fetch encountered
system.cpu.fetch.CacheLines                    246510                       # Number of cache lines fetched
system.cpu.fetch.Cycles                       2229493                       # Number of cycles fetch has run and was not squashing or blocked
system.cpu.fetch.IcacheSquashes                  4730                       # Number of outstanding Icache misses that were squashed
system.cpu.fetch.IcacheWaitRetryStallCycles           17                       # Number of stall cycles due to full MSHR
system.cpu.fetch.Insts                        2864071                       # Number of instructions fetch has processed
system.cpu.fetch.MiscStallCycles                  118                       # Number of cycles fetch has spent waiting on interrupts, or bad addresses, or out of MSHRs
system.cpu.fetch.PendingQuiesceStallCycles            7                       # Number of stall cycles due to pending quiesce instructions
system.cpu.fetch.PendingTrapStallCycles           800                       # Number of stall cycles due to pending traps
system.cpu.fetch.SquashCycles                   49038                       # Number of cycles fetch has spent squashing
system.cpu.fetch.branchRate                  0.179883                       # Number of branch fetches per cycle
system.cpu.fetch.icacheStallCycles             337521                       # Number of cycles fetch is stalled on an Icache miss
system.cpu.fetch.predictedBranches             252286                       # Number of branches that fetch has predicted taken
system.cpu.fetch.rate                        1.040076                       # Number of inst fetches per cycle
system.cpu.fetch.rateDist::samples            2592475                       # Number of instructions fetched each cycle (Total)
system.cpu.fetch.rateDist::mean              1.938633                       # Number of instructions fetched each cycle (Total)
system.cpu.fetch.rateDist::stdev             1.930298                       # Number of instructions fetched each cycle (Total)
system.cpu.fetch.rateDist::underflows               0      0.00%      0.00% # Number of instructions fetched each cycle (Total)
system.cpu.fetch.rateDist::0                  1229669     47.43%     47.43% # Number of instructions fetched each cycle (Total)
system.cpu.fetch.rateDist::1                    75770      2.92%     50.35% # Number of instructions fetched each cycle (Total)
system.cpu.fetch.rateDist::2                    60516      2.33%     52.69% # Number of instructions fetched each cycle (Total)
system.cpu.fetch.rateDist::3                    77024      2.97%     55.66% # Number of instructions fetched each cycle (Total)
system.cpu.fetch.rateDist::4                  1149496     44.34%    100.00% # Number of instructions fetched each cycle (Total)
system.cpu.fetch.rateDist::overflows                0      0.00%    100.00% # Number of instructions fetched each cycle (Total)
system.cpu.fetch.rateDist::min_value                0                       # Number of instructions fetched each cycle (Total)
system.cpu.fetch.rateDist::max_value                4                       # Number of instructions fetched each cycle (Total)
system.cpu.fetch.rateDist::total              2592475                       # Number of instructions fetched each cycle (Total)
system.cpu.fp_regfile_reads                    124669                       # number of floating regfile reads
system.cpu.fp_regfile_writes                    68326                       # number of floating regfile writes
system.cpu.fuPool.fu_ticks_busy::IntALU(0)    219841600                       # Total ticks fu was busy
system.cpu.fuPool.fu_ticks_busy::IntALU(1)    219841600                       # Total ticks fu was busy
system.cpu.fuPool.fu_ticks_busy::IntALU(2)    219841600                       # Total ticks fu was busy
system.cpu.fuPool.fu_ticks_busy::IntALU(3)    219841200                       # Total ticks fu was busy
system.cpu.fuPool.fu_ticks_busy::IntALU(4)    219841200                       # Total ticks fu was busy
system.cpu.fuPool.fu_ticks_busy::IntALU(5)    219841200                       # Total ticks fu was busy
system.cpu.fuPool.fu_ticks_busy::IntMultDiv(0)      8603600                       # Total ticks fu was busy
system.cpu.fuPool.fu_ticks_busy::IntMultDiv(1)      8603200                       # Total ticks fu was busy
system.cpu.fuPool.fu_ticks_busy::FP_ALU(0)       567200                       # Total ticks fu was busy
system.cpu.fuPool.fu_ticks_busy::FP_ALU(1)       566800                       # Total ticks fu was busy
system.cpu.fuPool.fu_ticks_busy::FP_ALU(2)       566400                       # Total ticks fu was busy
system.cpu.fuPool.fu_ticks_busy::FP_ALU(3)       566400                       # Total ticks fu was busy
system.cpu.fuPool.fu_ticks_busy::FP_MultDiv(0)            0                       # Total ticks fu was busy
system.cpu.fuPool.fu_ticks_busy::FP_MultDiv(1)            0                       # Total ticks fu was busy
system.cpu.fuPool.fu_ticks_busy::SIMD_Unit(0)      4586800                       # Total ticks fu was busy
system.cpu.fuPool.fu_ticks_busy::SIMD_Unit(1)      4595600                       # Total ticks fu was busy
system.cpu.fuPool.fu_ticks_busy::SIMD_Unit(2)      4788000                       # Total ticks fu was busy
system.cpu.fuPool.fu_ticks_busy::SIMD_Unit(3)      4764000                       # Total ticks fu was busy
system.cpu.fuPool.fu_ticks_busy::PredALU(0)            0                       # Total ticks fu was busy
system.cpu.fuPool.fu_ticks_busy::RdWrPort(0)     79279200                       # Total ticks fu was busy
system.cpu.fuPool.fu_ticks_busy::RdWrPort(1)     79297600                       # Total ticks fu was busy
system.cpu.fuPool.fu_ticks_busy::RdWrPort(2)     79262800                       # Total ticks fu was busy
system.cpu.fuPool.fu_ticks_busy::RdWrPort(3)     79250000                       # Total ticks fu was busy
system.cpu.fuPool.fu_ticks_busy::IprPort(0)            0                       # Total ticks fu was busy
system.cpu.fuPool.fu_ticks_busy::total     1674346000                       # Total ticks fu was busy
system.cpu.icache.prefetcher.num_hwpf_issued            0                       # number of hwpf issued
system.cpu.icache.prefetcher.pfBufferHit            0                       # number of redundant prefetches already in prefetch queue
system.cpu.icache.prefetcher.pfIdentified            0                       # number of prefetch candidates identified
system.cpu.icache.prefetcher.pfInCache              0                       # number of redundant prefetches already in cache/mshr dropped
system.cpu.icache.prefetcher.pfRemovedFull            0                       # number of prefetches dropped due to prefetch queue size
system.cpu.icache.prefetcher.pfSpanPage             0                       # number of prefetches that crossed the page
system.cpu.idleCycles                          161239                       # Total number of cycles that the CPU has spent unscheduled due to idling
system.cpu.iew.branchMispredicts                28994                       # Number of branch mispredicts detected at execute
system.cpu.iew.exec_branches                   380760                       # Number of branches executed
system.cpu.iew.exec_nop                             0                       # number of nop insts executed
system.cpu.iew.exec_rate                     1.517093                       # Inst execution rate
system.cpu.iew.exec_refs                       779730                       # number of memory reference insts executed
system.cpu.iew.exec_stores                     196036                       # Number of stores executed
system.cpu.iew.exec_swp                             0                       # number of swp insts executed
system.cpu.iew.iewBlockCycles                  692594                       # Number of cycles IEW is blocking
system.cpu.iew.iewDispLoadInsts                613972                       # Number of dispatched load instructions
system.cpu.iew.iewDispNonSpecInsts                952                       # Number of dispatched non-speculative instructions
system.cpu.iew.iewDispSquashedInsts               545                       # Number of squashed instructions skipped by dispatch
system.cpu.iew.iewDispStoreInsts               206573                       # Number of dispatched store instructions
system.cpu.iew.iewDispatchedInsts             4531814                       # Number of instructions dispatched to IQ
system.cpu.iew.iewExecLoadInsts                583694                       # Number of load instructions executed
system.cpu.iew.iewExecSquashedInsts             34754                       # Number of squashed instructions skipped in execute
system.cpu.iew.iewExecutedInsts               4177639                       # Number of executed instructions
system.cpu.iew.iewIQFullEvents                   3385                       # Number of times the IQ has become full, causing a stall
system.cpu.iew.iewIdleCycles                        0                       # Number of cycles IEW is idle
system.cpu.iew.iewLSQFullEvents                  8472                       # Number of times the LSQ has become full, causing a stall
system.cpu.iew.iewSquashCycles                  24519                       # Number of cycles IEW is squashing
system.cpu.iew.iewUnblockCycles                 14723                       # Number of cycles IEW is unblocking
system.cpu.iew.lsq.thread0.blockedLoads             0                       # Number of blocked loads due to partial load-store forwarding
system.cpu.iew.lsq.thread0.cacheBlocked           630                       # Number of times an access to memory failed due to the cache being blocked
system.cpu.iew.lsq.thread0.forwLoads            39982                       # Number of loads that had data forwarded from stores
system.cpu.iew.lsq.thread0.ignoredResponses          256                       # Number of memory responses ignored because the instruction is squashed
system.cpu.iew.lsq.thread0.invAddrLoads             0                       # Number of loads ignored due to an invalid address
system.cpu.iew.lsq.thread0.invAddrSwpfs             0                       # Number of software prefetches ignored due to an invalid address
system.cpu.iew.lsq.thread0.memOrderViolation           90                       # Number of memory ordering violations
system.cpu.iew.lsq.thread0.rescheduledLoads            6                       # Number of loads that were rescheduled
system.cpu.iew.lsq.thread0.squashedLoads       115822                       # Number of loads squashed
system.cpu.iew.lsq.thread0.squashedStores        30034                       # Number of stores squashed
system.cpu.iew.memOrderViolationEvents             90                       # Number of memory order violations
system.cpu.iew.predictedNotTakenIncorrect        20833                       # Number of branches that were predicted not taken incorrectly
system.cpu.iew.predictedTakenIncorrect           8161                       # Number of branches that were predicted taken incorrectly
system.cpu.iew.wb_consumers                   5839773                       # num instructions consuming a value
system.cpu.iew.wb_count                       4155524                       # cumulative count of insts written-back
system.cpu.iew.wb_fanout                     0.567851                       # average fanout of values written-back
system.cpu.iew.wb_producers                   3316120                       # num instructions producing a value
system.cpu.iew.wb_rate                       1.509062                       # insts written-back per cycle
system.cpu.iew.wb_sent                        4162686                       # cumulative count of insts sent to commit
system.cpu.int_regfile_reads                  6468860                       # number of integer regfile reads
system.cpu.int_regfile_writes                 3586090                       # number of integer regfile writes
system.cpu.ipc                               0.759714                       # IPC: Instructions Per Cycle
system.cpu.ipc_total                         0.759714                       # IPC: Total IPC of All Threads
system.cpu.iq.FU_type_0::No_OpClass             26528      0.63%      0.63% # Type of FU issued
system.cpu.iq.FU_type_0::IntAlu               3297622     78.28%     78.91% # Type of FU issued
system.cpu.iq.FU_type_0::IntMult                 1996      0.05%     78.96% # Type of FU issued
system.cpu.iq.FU_type_0::IntDiv                 41021      0.97%     79.93% # Type of FU issued
system.cpu.iq.FU_type_0::FloatAdd                4397      0.10%     80.04% # Type of FU issued
system.cpu.iq.FU_type_0::FloatCmp                   0      0.00%     80.04% # Type of FU issued
system.cpu.iq.FU_type_0::FloatCvt                1270      0.03%     80.07% # Type of FU issued
system.cpu.iq.FU_type_0::FloatMult                  0      0.00%     80.07% # Type of FU issued
system.cpu.iq.FU_type_0::FloatMultAcc               0      0.00%     80.07% # Type of FU issued
system.cpu.iq.FU_type_0::FloatDiv                   0      0.00%     80.07% # Type of FU issued
system.cpu.iq.FU_type_0::FloatMisc                  0      0.00%     80.07% # Type of FU issued
system.cpu.iq.FU_type_0::FloatSqrt                  0      0.00%     80.07% # Type of FU issued
system.cpu.iq.FU_type_0::SimdAdd                 6830      0.16%     80.23% # Type of FU issued
system.cpu.iq.FU_type_0::SimdAddAcc                 0      0.00%     80.23% # Type of FU issued
system.cpu.iq.FU_type_0::SimdAlu                15308      0.36%     80.59% # Type of FU issued
system.cpu.iq.FU_type_0::SimdCmp                    0      0.00%     80.59% # Type of FU issued
system.cpu.iq.FU_type_0::SimdCvt                14363      0.34%     80.94% # Type of FU issued
system.cpu.iq.FU_type_0::SimdMisc                8257      0.20%     81.13% # Type of FU issued
system.cpu.iq.FU_type_0::SimdMult                   0      0.00%     81.13% # Type of FU issued
system.cpu.iq.FU_type_0::SimdMultAcc                0      0.00%     81.13% # Type of FU issued
system.cpu.iq.FU_type_0::SimdShift               2078      0.05%     81.18% # Type of FU issued
system.cpu.iq.FU_type_0::SimdShiftAcc               0      0.00%     81.18% # Type of FU issued
system.cpu.iq.FU_type_0::SimdDiv                    0      0.00%     81.18% # Type of FU issued
system.cpu.iq.FU_type_0::SimdSqrt                   0      0.00%     81.18% # Type of FU issued
system.cpu.iq.FU_type_0::SimdFloatAdd               0      0.00%     81.18% # Type of FU issued
system.cpu.iq.FU_type_0::SimdFloatAlu               0      0.00%     81.18% # Type of FU issued
system.cpu.iq.FU_type_0::SimdFloatCmp               0      0.00%     81.18% # Type of FU issued
system.cpu.iq.FU_type_0::SimdFloatCvt               0      0.00%     81.18% # Type of FU issued
system.cpu.iq.FU_type_0::SimdFloatDiv               0      0.00%     81.18% # Type of FU issued
system.cpu.iq.FU_type_0::SimdFloatMisc              0      0.00%     81.18% # Type of FU issued
system.cpu.iq.FU_type_0::SimdFloatMult              0      0.00%     81.18% # Type of FU issued
system.cpu.iq.FU_type_0::SimdFloatMultAcc            0      0.00%     81.18% # Type of FU issued
system.cpu.iq.FU_type_0::SimdFloatSqrt              0      0.00%     81.18% # Type of FU issued
system.cpu.iq.FU_type_0::SimdReduceAdd              0      0.00%     81.18% # Type of FU issued
system.cpu.iq.FU_type_0::SimdReduceAlu              0      0.00%     81.18% # Type of FU issued
system.cpu.iq.FU_type_0::SimdReduceCmp              0      0.00%     81.18% # Type of FU issued
system.cpu.iq.FU_type_0::SimdFloatReduceAdd            0      0.00%     81.18% # Type of FU issued
system.cpu.iq.FU_type_0::SimdFloatReduceCmp            0      0.00%     81.18% # Type of FU issued
system.cpu.iq.FU_type_0::SimdAes                    0      0.00%     81.18% # Type of FU issued
system.cpu.iq.FU_type_0::SimdAesMix                 0      0.00%     81.18% # Type of FU issued
system.cpu.iq.FU_type_0::SimdSha1Hash               0      0.00%     81.18% # Type of FU issued
system.cpu.iq.FU_type_0::SimdSha1Hash2              0      0.00%     81.18% # Type of FU issued
system.cpu.iq.FU_type_0::SimdSha256Hash             0      0.00%     81.18% # Type of FU issued
system.cpu.iq.FU_type_0::SimdSha256Hash2            0      0.00%     81.18% # Type of FU issued
system.cpu.iq.FU_type_0::SimdShaSigma2              0      0.00%     81.18% # Type of FU issued
system.cpu.iq.FU_type_0::SimdShaSigma3              0      0.00%     81.18% # Type of FU issued
system.cpu.iq.FU_type_0::SimdPredAlu                0      0.00%     81.18% # Type of FU issued
system.cpu.iq.FU_type_0::MemRead               568617     13.50%     94.68% # Type of FU issued
system.cpu.iq.FU_type_0::MemWrite              185229      4.40%     99.08% # Type of FU issued
system.cpu.iq.FU_type_0::FloatMemRead           25356      0.60%     99.68% # Type of FU issued
system.cpu.iq.FU_type_0::FloatMemWrite          13524      0.32%    100.00% # Type of FU issued
system.cpu.iq.FU_type_0::IprAccess                  0      0.00%    100.00% # Type of FU issued
system.cpu.iq.FU_type_0::InstPrefetch               0      0.00%    100.00% # Type of FU issued
system.cpu.iq.FU_type_0::total                4212396                       # Type of FU issued
system.cpu.iq.fp_alu_accesses                   92729                       # Number of floating point alu accesses
system.cpu.iq.fp_inst_queue_reads              186758                       # Number of floating instruction queue reads
system.cpu.iq.fp_inst_queue_wakeup_accesses        89488                       # Number of floating instruction queue wakeup accesses
system.cpu.iq.fp_inst_queue_writes             133222                       # Number of floating instruction queue writes
system.cpu.iq.fu_busy_cnt                           0                       # FU busy when requested
system.cpu.iq.fu_busy_rate                          0                       # FU busy rate (busy events/executed inst)
system.cpu.iq.fu_full::No_OpClass                   0                       # attempts to use FU when none available
system.cpu.iq.fu_full::IntAlu                       0                       # attempts to use FU when none available
system.cpu.iq.fu_full::IntMult                      0                       # attempts to use FU when none available
system.cpu.iq.fu_full::IntDiv                       0                       # attempts to use FU when none available
system.cpu.iq.fu_full::FloatAdd                     0                       # attempts to use FU when none available
system.cpu.iq.fu_full::FloatCmp                     0                       # attempts to use FU when none available
system.cpu.iq.fu_full::FloatCvt                     0                       # attempts to use FU when none available
system.cpu.iq.fu_full::FloatMult                    0                       # attempts to use FU when none available
system.cpu.iq.fu_full::FloatMultAcc                 0                       # attempts to use FU when none available
system.cpu.iq.fu_full::FloatDiv                     0                       # attempts to use FU when none available
system.cpu.iq.fu_full::FloatMisc                    0                       # attempts to use FU when none available
system.cpu.iq.fu_full::FloatSqrt                    0                       # attempts to use FU when none available
system.cpu.iq.fu_full::SimdAdd                      0                       # attempts to use FU when none available
system.cpu.iq.fu_full::SimdAddAcc                   0                       # attempts to use FU when none available
system.cpu.iq.fu_full::SimdAlu                      0                       # attempts to use FU when none available
system.cpu.iq.fu_full::SimdCmp                      0                       # attempts to use FU when none available
system.cpu.iq.fu_full::SimdCvt                      0                       # attempts to use FU when none available
system.cpu.iq.fu_full::SimdMisc                     0                       # attempts to use FU when none available
system.cpu.iq.fu_full::SimdMult                     0                       # attempts to use FU when none available
system.cpu.iq.fu_full::SimdMultAcc                  0                       # attempts to use FU when none available
system.cpu.iq.fu_full::SimdShift                    0                       # attempts to use FU when none available
system.cpu.iq.fu_full::SimdShiftAcc                 0                       # attempts to use FU when none available
system.cpu.iq.fu_full::SimdDiv                      0                       # attempts to use FU when none available
system.cpu.iq.fu_full::SimdSqrt                     0                       # attempts to use FU when none available
system.cpu.iq.fu_full::SimdFloatAdd                 0                       # attempts to use FU when none available
system.cpu.iq.fu_full::SimdFloatAlu                 0                       # attempts to use FU when none available
system.cpu.iq.fu_full::SimdFloatCmp                 0                       # attempts to use FU when none available
system.cpu.iq.fu_full::SimdFloatCvt                 0                       # attempts to use FU when none available
system.cpu.iq.fu_full::SimdFloatDiv                 0                       # attempts to use FU when none available
system.cpu.iq.fu_full::SimdFloatMisc                0                       # attempts to use FU when none available
system.cpu.iq.fu_full::SimdFloatMult                0                       # attempts to use FU when none available
system.cpu.iq.fu_full::SimdFloatMultAcc             0                       # attempts to use FU when none available
system.cpu.iq.fu_full::SimdFloatSqrt                0                       # attempts to use FU when none available
system.cpu.iq.fu_full::SimdReduceAdd                0                       # attempts to use FU when none available
system.cpu.iq.fu_full::SimdReduceAlu                0                       # attempts to use FU when none available
system.cpu.iq.fu_full::SimdReduceCmp                0                       # attempts to use FU when none available
system.cpu.iq.fu_full::SimdFloatReduceAdd            0                       # attempts to use FU when none available
system.cpu.iq.fu_full::SimdFloatReduceCmp            0                       # attempts to use FU when none available
system.cpu.iq.fu_full::SimdAes                      0                       # attempts to use FU when none available
system.cpu.iq.fu_full::SimdAesMix                   0                       # attempts to use FU when none available
system.cpu.iq.fu_full::SimdSha1Hash                 0                       # attempts to use FU when none available
system.cpu.iq.fu_full::SimdSha1Hash2                0                       # attempts to use FU when none available
system.cpu.iq.fu_full::SimdSha256Hash               0                       # attempts to use FU when none available
system.cpu.iq.fu_full::SimdSha256Hash2              0                       # attempts to use FU when none available
system.cpu.iq.fu_full::SimdShaSigma2                0                       # attempts to use FU when none available
system.cpu.iq.fu_full::SimdShaSigma3                0                       # attempts to use FU when none available
system.cpu.iq.fu_full::SimdPredAlu                  0                       # attempts to use FU when none available
system.cpu.iq.fu_full::MemRead                      0                       # attempts to use FU when none available
system.cpu.iq.fu_full::MemWrite                     0                       # attempts to use FU when none available
system.cpu.iq.fu_full::FloatMemRead                 0                       # attempts to use FU when none available
system.cpu.iq.fu_full::FloatMemWrite                0                       # attempts to use FU when none available
system.cpu.iq.fu_full::IprAccess                    0                       # attempts to use FU when none available
system.cpu.iq.fu_full::InstPrefetch                 0                       # attempts to use FU when none available
system.cpu.iq.int_alu_accesses                4093139                       # Number of integer alu accesses
system.cpu.iq.int_inst_queue_reads           10848994                       # Number of integer instruction queue reads
system.cpu.iq.int_inst_queue_wakeup_accesses      4066036                       # Number of integer instruction queue wakeup accesses
system.cpu.iq.int_inst_queue_writes           5286908                       # Number of integer instruction queue writes
system.cpu.iq.iqInstsAdded                    4530664                       # Number of instructions added to the IQ (excludes non-spec)
system.cpu.iq.iqInstsIssued                   4212396                       # Number of instructions issued
system.cpu.iq.iqNonSpecInstsAdded                1150                       # Number of non-speculative instructions added to the IQ
system.cpu.iq.iqSquashedInstsExamined          888229                       # Number of squashed instructions iterated over during squash; mainly for profiling
system.cpu.iq.iqSquashedInstsIssued             18488                       # Number of squashed instructions issued
system.cpu.iq.iqSquashedNonSpecRemoved            399                       # Number of squashed non-spec instructions that were removed
system.cpu.iq.iqSquashedOperandsExamined      1319921                       # Number of squashed operands that are examined and possibly removed from graph
system.cpu.iq.issued_per_cycle::samples       2592475                       # Number of insts issued each cycle
system.cpu.iq.issued_per_cycle::mean         1.624855                       # Number of insts issued each cycle
system.cpu.iq.issued_per_cycle::stdev        1.669273                       # Number of insts issued each cycle
system.cpu.iq.issued_per_cycle::underflows            0      0.00%      0.00% # Number of insts issued each cycle
system.cpu.iq.issued_per_cycle::0             1168402     45.07%     45.07% # Number of insts issued each cycle
system.cpu.iq.issued_per_cycle::1              177192      6.83%     51.90% # Number of insts issued each cycle
system.cpu.iq.issued_per_cycle::2              303669     11.71%     63.62% # Number of insts issued each cycle
system.cpu.iq.issued_per_cycle::3              344982     13.31%     76.92% # Number of insts issued each cycle
system.cpu.iq.issued_per_cycle::4              598230     23.08%    100.00% # Number of insts issued each cycle
system.cpu.iq.issued_per_cycle::overflows            0      0.00%    100.00% # Number of insts issued each cycle
system.cpu.iq.issued_per_cycle::min_value            0                       # Number of insts issued each cycle
system.cpu.iq.issued_per_cycle::max_value            4                       # Number of insts issued each cycle
system.cpu.iq.issued_per_cycle::total         2592475                       # Number of insts issued each cycle
system.cpu.iq.rate                           1.529714                       # Inst issue rate
system.cpu.iq.vec_alu_accesses                      0                       # Number of vector alu accesses
system.cpu.iq.vec_inst_queue_reads                  0                       # Number of vector instruction queue reads
system.cpu.iq.vec_inst_queue_wakeup_accesses            0                       # Number of vector instruction queue wakeup accesses
system.cpu.iq.vec_inst_queue_writes                 0                       # Number of vector instruction queue writes
system.cpu.itb.rdAccesses                           0                       # TLB accesses on read requests
system.cpu.itb.rdMisses                             0                       # TLB misses on read requests
system.cpu.itb.wrAccesses                      246637                       # TLB accesses on write requests
system.cpu.itb.wrMisses                           379                       # TLB misses on write requests
system.cpu.memDep0.conflictingLoads             13168                       # Number of conflicting loads.
system.cpu.memDep0.conflictingStores             4515                       # Number of conflicting stores.
system.cpu.memDep0.insertedLoads               613972                       # Number of loads inserted to the mem dependence unit.
system.cpu.memDep0.insertedStores              206573                       # Number of stores inserted to the mem dependence unit.
system.cpu.misc_regfile_reads                 1577646                       # number of misc regfile reads
system.cpu.misc_regfile_writes                    693                       # number of misc regfile writes
system.cpu.numCycles                          2753714                       # number of cpu cycles simulated
system.cpu.numWorkItemsCompleted                    0                       # number of work items this cpu completed
system.cpu.numWorkItemsStarted                      0                       # number of work items this cpu started
system.cpu.process.numSyscalls                     57                       # Number of system calls
system.cpu.rename.BlockCycles                  838449                       # Number of cycles rename is blocking
system.cpu.rename.CommittedMaps               4980505                       # Number of HB maps that are committed
system.cpu.rename.FullRegisterEvents               55                       # Number of times there has been no free registers
system.cpu.rename.IQFullEvents                  46962                       # Number of times rename has blocked due to IQ full
system.cpu.rename.IdleCycles                   352174                       # Number of cycles rename is idle
system.cpu.rename.LQFullEvents                  18528                       # Number of times rename has blocked due to LQ full
system.cpu.rename.ROBFullEvents                  5544                       # Number of times rename has blocked due to ROB full
system.cpu.rename.RenameLookups              12207247                       # Number of register rename lookups that rename has made
system.cpu.rename.RenamedInsts                4673742                       # Number of instructions processed by rename
system.cpu.rename.RenamedOperands             6376310                       # Number of destination operands rename has renamed
system.cpu.rename.RunCycles                   1185687                       # Number of cycles rename is running
system.cpu.rename.SQFullEvents                  69086                       # Number of times rename has blocked due to SQ full
system.cpu.rename.SquashCycles                  24519                       # Number of cycles rename is squashing
system.cpu.rename.UnblockCycles                171460                       # Number of cycles rename is unblocking
system.cpu.rename.UndoneMaps                  1395782                       # Number of HB maps that are undone due to squashing
system.cpu.rename.fp_rename_lookups            159269                       # Number of floating rename lookups
system.cpu.rename.int_rename_lookups          7412416                       # Number of integer rename lookups
system.cpu.rename.serializeStallCycles          20186                       # count of cycles rename stalled for serializing inst
system.cpu.rename.serializingInsts                887                       # count of serializing insts renamed
system.cpu.rename.skidInsts                    207399                       # count of insts added to the skid buffer
system.cpu.rename.tempSerializingInsts            938                       # count of temporary serializing insts renamed
system.cpu.rob.rob_reads                      6278286                       # The number of ROB reads
system.cpu.rob.rob_writes                     9306894                       # The number of ROB writes
system.cpu.timesIdled                            1608                       # Number of times that the entire CPU went into an idle state and unscheduled itself
system.l2bus.snoop_filter.hit_multi_requests           11                       # Number of requests hitting in the snoop filter with multiple (>1) holders of the requested data.
system.l2bus.snoop_filter.hit_multi_snoops            1                       # Number of snoops hitting in the snoop filter with multiple (>1) holders of the requested data.
system.l2bus.snoop_filter.hit_single_requests        18549                       # Number of requests hitting in the snoop filter with a single holder of the requested data.
system.l2bus.snoop_filter.hit_single_snoops          431                       # Number of snoops hitting in the snoop filter with a single holder of the requested data.
system.l2bus.snoop_filter.tot_requests          38374                       # Total number of requests made to the snoop filter.
system.l2bus.snoop_filter.tot_snoops              432                       # Total number of snoops made to the snoop filter.
system.l2cache.prefetcher.num_hwpf_issued          711                       # number of hwpf issued
system.l2cache.prefetcher.pfBufferHit               0                       # number of redundant prefetches already in prefetch queue
system.l2cache.prefetcher.pfIdentified            711                       # number of prefetch candidates identified
system.l2cache.prefetcher.pfInCache                 0                       # number of redundant prefetches already in cache/mshr dropped
system.l2cache.prefetcher.pfRemovedFull             0                       # number of prefetches dropped due to prefetch queue size
system.l2cache.prefetcher.pfSpanPage              105                       # number of prefetches that crossed the page
system.membus.snoop_filter.hit_multi_requests            0                       # Number of requests hitting in the snoop filter with multiple (>1) holders of the requested data.
system.membus.snoop_filter.hit_multi_snoops            0                       # Number of snoops hitting in the snoop filter with multiple (>1) holders of the requested data.
system.membus.snoop_filter.hit_single_requests         9425                       # Number of requests hitting in the snoop filter with a single holder of the requested data.
system.membus.snoop_filter.hit_single_snoops            0                       # Number of snoops hitting in the snoop filter with a single holder of the requested data.
system.membus.snoop_filter.tot_requests         22969                       # Total number of requests made to the snoop filter.
system.membus.snoop_filter.tot_snoops               0                       # Total number of snoops made to the snoop filter.
system.membus.pwrStateResidencyTicks::UNDEFINED   1101485200                       # Cumulative time (in ticks) in various power states
system.membus.trans_dist::ReadResp              12222                       # Transaction distribution
system.membus.trans_dist::WritebackDirty         1342                       # Transaction distribution
system.membus.trans_dist::CleanEvict             8083                       # Transaction distribution
system.membus.trans_dist::ReadExReq              1322                       # Transaction distribution
system.membus.trans_dist::ReadExResp             1322                       # Transaction distribution
system.membus.trans_dist::ReadSharedReq         12222                       # Transaction distribution
system.membus.pkt_count_system.l2cache.mem_side::system.mem_ctrl.port        36513                       # Packet count per connected master and slave (bytes)
system.membus.pkt_count_system.l2cache.mem_side::total        36513                       # Packet count per connected master and slave (bytes)
system.membus.pkt_count::total                  36513                       # Packet count per connected master and slave (bytes)
system.membus.pkt_size_system.l2cache.mem_side::system.mem_ctrl.port       952704                       # Cumulative packet size per connected master and slave (bytes)
system.membus.pkt_size_system.l2cache.mem_side::total       952704                       # Cumulative packet size per connected master and slave (bytes)
system.membus.pkt_size::total                  952704                       # Cumulative packet size per connected master and slave (bytes)
system.membus.snoops                                0                       # Total snoops (count)
system.membus.snoopTraffic                          0                       # Total snoop traffic (bytes)
system.membus.snoop_fanout::samples             13544                       # Request fanout histogram
system.membus.snoop_fanout::mean                    0                       # Request fanout histogram
system.membus.snoop_fanout::stdev                   0                       # Request fanout histogram
system.membus.snoop_fanout::underflows              0      0.00%      0.00% # Request fanout histogram
system.membus.snoop_fanout::0                   13544    100.00%    100.00% # Request fanout histogram
system.membus.snoop_fanout::1                       0      0.00%    100.00% # Request fanout histogram
system.membus.snoop_fanout::overflows               0      0.00%    100.00% # Request fanout histogram
system.membus.snoop_fanout::min_value               0                       # Request fanout histogram
system.membus.snoop_fanout::max_value               0                       # Request fanout histogram
system.membus.snoop_fanout::total               13544                       # Request fanout histogram
system.membus.reqLayer2.occupancy            11361381                       # Layer occupancy (ticks)
system.membus.reqLayer2.utilization               1.0                       # Layer utilization (%)
system.membus.respLayer0.occupancy           29384719                       # Layer occupancy (ticks)
system.membus.respLayer0.utilization              2.7                       # Layer utilization (%)
system.l2bus.pwrStateResidencyTicks::UNDEFINED   1101485200                       # Cumulative time (in ticks) in various power states
system.l2bus.trans_dist::ReadResp               17748                       # Transaction distribution
system.l2bus.trans_dist::WritebackDirty          4117                       # Transaction distribution
system.l2bus.trans_dist::CleanEvict             23936                       # Transaction distribution
system.l2bus.trans_dist::HardPFReq               1011                       # Transaction distribution
system.l2bus.trans_dist::ReadExReq               2079                       # Transaction distribution
system.l2bus.trans_dist::ReadExResp              2079                       # Transaction distribution
system.l2bus.trans_dist::ReadSharedReq          17748                       # Transaction distribution
system.l2bus.pkt_count_system.cpu.icache.mem_side::system.l2cache.cpu_side         8376                       # Packet count per connected master and slave (bytes)
system.l2bus.pkt_count_system.cpu.dcache.mem_side::system.l2cache.cpu_side        49823                       # Packet count per connected master and slave (bytes)
system.l2bus.pkt_count::total                   58199                       # Packet count per connected master and slave (bytes)
system.l2bus.pkt_size_system.cpu.icache.mem_side::system.l2cache.cpu_side       184064                       # Cumulative packet size per connected master and slave (bytes)
system.l2bus.pkt_size_system.cpu.dcache.mem_side::system.l2cache.cpu_side      1262336                       # Cumulative packet size per connected master and slave (bytes)
system.l2bus.pkt_size::total                  1446400                       # Cumulative packet size per connected master and slave (bytes)
system.l2bus.snoops                             10519                       # Total snoops (count)
system.l2bus.snoopTraffic                       86016                       # Total snoop traffic (bytes)
system.l2bus.snoop_fanout::samples              30344                       # Request fanout histogram
system.l2bus.snoop_fanout::mean              0.014698                       # Request fanout histogram
system.l2bus.snoop_fanout::stdev             0.120617                       # Request fanout histogram
system.l2bus.snoop_fanout::underflows               0      0.00%      0.00% # Request fanout histogram
system.l2bus.snoop_fanout::0                    29899     98.53%     98.53% # Request fanout histogram
system.l2bus.snoop_fanout::1                      444      1.46%    100.00% # Request fanout histogram
system.l2bus.snoop_fanout::2                        1      0.00%    100.00% # Request fanout histogram
system.l2bus.snoop_fanout::overflows                0      0.00%    100.00% # Request fanout histogram
system.l2bus.snoop_fanout::min_value                0                       # Request fanout histogram
system.l2bus.snoop_fanout::max_value                2                       # Request fanout histogram
system.l2bus.snoop_fanout::total                30344                       # Request fanout histogram
system.l2bus.respLayer1.occupancy            20339598                       # Layer occupancy (ticks)
system.l2bus.respLayer1.utilization               1.8                       # Layer utilization (%)
system.l2bus.reqLayer0.occupancy             19021335                       # Layer occupancy (ticks)
system.l2bus.reqLayer0.utilization                1.7                       # Layer utilization (%)
system.l2bus.respLayer0.occupancy             3454398                       # Layer occupancy (ticks)
system.l2bus.respLayer0.utilization               0.3                       # Layer utilization (%)
system.clk_domain.clock                           400                       # Clock period in ticks
system.clk_domain.voltage_domain.voltage            1                       # Voltage in Volts
system.cpu.pwrStateResidencyTicks::ON      1101485200                       # Cumulative time (in ticks) in various power states
system.cpu.icache.pwrStateResidencyTicks::UNDEFINED   1101485200                       # Cumulative time (in ticks) in various power states
system.cpu.icache.demand_hits::.cpu.inst       242916                       # number of demand (read+write) hits
system.cpu.icache.demand_hits::total           242916                       # number of demand (read+write) hits
system.cpu.icache.overall_hits::.cpu.inst       242916                       # number of overall hits
system.cpu.icache.overall_hits::total          242916                       # number of overall hits
system.cpu.icache.demand_misses::.cpu.inst         3594                       # number of demand (read+write) misses
system.cpu.icache.demand_misses::total           3594                       # number of demand (read+write) misses
system.cpu.icache.overall_misses::.cpu.inst         3594                       # number of overall misses
system.cpu.icache.overall_misses::total          3594                       # number of overall misses
system.cpu.icache.demand_miss_latency::.cpu.inst    178799199                       # number of demand (read+write) miss cycles
system.cpu.icache.demand_miss_latency::total    178799199                       # number of demand (read+write) miss cycles
system.cpu.icache.overall_miss_latency::.cpu.inst    178799199                       # number of overall miss cycles
system.cpu.icache.overall_miss_latency::total    178799199                       # number of overall miss cycles
system.cpu.icache.demand_accesses::.cpu.inst       246510                       # number of demand (read+write) accesses
system.cpu.icache.demand_accesses::total       246510                       # number of demand (read+write) accesses
system.cpu.icache.overall_accesses::.cpu.inst       246510                       # number of overall (read+write) accesses
system.cpu.icache.overall_accesses::total       246510                       # number of overall (read+write) accesses
system.cpu.icache.demand_miss_rate::.cpu.inst     0.014580                       # miss rate for demand accesses
system.cpu.icache.demand_miss_rate::total     0.014580                       # miss rate for demand accesses
system.cpu.icache.overall_miss_rate::.cpu.inst     0.014580                       # miss rate for overall accesses
system.cpu.icache.overall_miss_rate::total     0.014580                       # miss rate for overall accesses
system.cpu.icache.demand_avg_miss_latency::.cpu.inst 49749.359766                       # average overall miss latency
system.cpu.icache.demand_avg_miss_latency::total 49749.359766                       # average overall miss latency
system.cpu.icache.overall_avg_miss_latency::.cpu.inst 49749.359766                       # average overall miss latency
system.cpu.icache.overall_avg_miss_latency::total 49749.359766                       # average overall miss latency
system.cpu.icache.blocked_cycles::no_mshrs          164                       # number of cycles access was blocked
system.cpu.icache.blocked_cycles::no_targets            0                       # number of cycles access was blocked
system.cpu.icache.blocked::no_mshrs                 4                       # number of cycles access was blocked
system.cpu.icache.blocked::no_targets               0                       # number of cycles access was blocked
system.cpu.icache.avg_blocked_cycles::no_mshrs           41                       # average number of cycles each access was blocked
system.cpu.icache.avg_blocked_cycles::no_targets          nan                       # average number of cycles each access was blocked
system.cpu.icache.demand_mshr_hits::.cpu.inst          716                       # number of demand (read+write) MSHR hits
system.cpu.icache.demand_mshr_hits::total          716                       # number of demand (read+write) MSHR hits
system.cpu.icache.overall_mshr_hits::.cpu.inst          716                       # number of overall MSHR hits
system.cpu.icache.overall_mshr_hits::total          716                       # number of overall MSHR hits
system.cpu.icache.demand_mshr_misses::.cpu.inst         2878                       # number of demand (read+write) MSHR misses
system.cpu.icache.demand_mshr_misses::total         2878                       # number of demand (read+write) MSHR misses
system.cpu.icache.overall_mshr_misses::.cpu.inst         2878                       # number of overall MSHR misses
system.cpu.icache.overall_mshr_misses::total         2878                       # number of overall MSHR misses
system.cpu.icache.demand_mshr_miss_latency::.cpu.inst    142869199                       # number of demand (read+write) MSHR miss cycles
system.cpu.icache.demand_mshr_miss_latency::total    142869199                       # number of demand (read+write) MSHR miss cycles
system.cpu.icache.overall_mshr_miss_latency::.cpu.inst    142869199                       # number of overall MSHR miss cycles
system.cpu.icache.overall_mshr_miss_latency::total    142869199                       # number of overall MSHR miss cycles
system.cpu.icache.demand_mshr_miss_rate::.cpu.inst     0.011675                       # mshr miss rate for demand accesses
system.cpu.icache.demand_mshr_miss_rate::total     0.011675                       # mshr miss rate for demand accesses
system.cpu.icache.overall_mshr_miss_rate::.cpu.inst     0.011675                       # mshr miss rate for overall accesses
system.cpu.icache.overall_mshr_miss_rate::total     0.011675                       # mshr miss rate for overall accesses
system.cpu.icache.demand_avg_mshr_miss_latency::.cpu.inst 49641.834260                       # average overall mshr miss latency
system.cpu.icache.demand_avg_mshr_miss_latency::total 49641.834260                       # average overall mshr miss latency
system.cpu.icache.overall_avg_mshr_miss_latency::.cpu.inst 49641.834260                       # average overall mshr miss latency
system.cpu.icache.overall_avg_mshr_miss_latency::total 49641.834260                       # average overall mshr miss latency
system.cpu.icache.replacements                   2622                       # number of replacements
system.cpu.icache.ReadReq_hits::.cpu.inst       242916                       # number of ReadReq hits
system.cpu.icache.ReadReq_hits::total          242916                       # number of ReadReq hits
system.cpu.icache.ReadReq_misses::.cpu.inst         3594                       # number of ReadReq misses
system.cpu.icache.ReadReq_misses::total          3594                       # number of ReadReq misses
system.cpu.icache.ReadReq_miss_latency::.cpu.inst    178799199                       # number of ReadReq miss cycles
system.cpu.icache.ReadReq_miss_latency::total    178799199                       # number of ReadReq miss cycles
system.cpu.icache.ReadReq_accesses::.cpu.inst       246510                       # number of ReadReq accesses(hits+misses)
system.cpu.icache.ReadReq_accesses::total       246510                       # number of ReadReq accesses(hits+misses)
system.cpu.icache.ReadReq_miss_rate::.cpu.inst     0.014580                       # miss rate for ReadReq accesses
system.cpu.icache.ReadReq_miss_rate::total     0.014580                       # miss rate for ReadReq accesses
system.cpu.icache.ReadReq_avg_miss_latency::.cpu.inst 49749.359766                       # average ReadReq miss latency
system.cpu.icache.ReadReq_avg_miss_latency::total 49749.359766                       # average ReadReq miss latency
system.cpu.icache.ReadReq_mshr_hits::.cpu.inst          716                       # number of ReadReq MSHR hits
system.cpu.icache.ReadReq_mshr_hits::total          716                       # number of ReadReq MSHR hits
system.cpu.icache.ReadReq_mshr_misses::.cpu.inst         2878                       # number of ReadReq MSHR misses
system.cpu.icache.ReadReq_mshr_misses::total         2878                       # number of ReadReq MSHR misses
system.cpu.icache.ReadReq_mshr_miss_latency::.cpu.inst    142869199                       # number of ReadReq MSHR miss cycles
system.cpu.icache.ReadReq_mshr_miss_latency::total    142869199                       # number of ReadReq MSHR miss cycles
system.cpu.icache.ReadReq_mshr_miss_rate::.cpu.inst     0.011675                       # mshr miss rate for ReadReq accesses
system.cpu.icache.ReadReq_mshr_miss_rate::total     0.011675                       # mshr miss rate for ReadReq accesses
system.cpu.icache.ReadReq_avg_mshr_miss_latency::.cpu.inst 49641.834260                       # average ReadReq mshr miss latency
system.cpu.icache.ReadReq_avg_mshr_miss_latency::total 49641.834260                       # average ReadReq mshr miss latency
system.cpu.icache.prefetcher.pwrStateResidencyTicks::UNDEFINED   1101485200                       # Cumulative time (in ticks) in various power states
system.cpu.icache.tags.pwrStateResidencyTicks::UNDEFINED   1101485200                       # Cumulative time (in ticks) in various power states
system.cpu.icache.tags.tagsinuse           253.468828                       # Cycle average of tags in use
system.cpu.icache.tags.total_refs              232117                       # Total number of references to valid blocks.
system.cpu.icache.tags.sampled_refs              2622                       # Sample count of references to valid blocks.
system.cpu.icache.tags.avg_refs             88.526697                       # Average number of references to valid blocks.
system.cpu.icache.tags.warmup_cycle             66400                       # Cycle when the warmup percentage was hit.
system.cpu.icache.tags.occ_blocks::.cpu.inst   253.468828                       # Average occupied blocks per requestor
system.cpu.icache.tags.occ_percent::.cpu.inst     0.990113                       # Average percentage of cache occupancy
system.cpu.icache.tags.occ_percent::total     0.990113                       # Average percentage of cache occupancy
system.cpu.icache.tags.occ_task_id_blocks::1024          256                       # Occupied blocks per task id
system.cpu.icache.tags.age_task_id_blocks_1024::0           79                       # Occupied blocks per task id
system.cpu.icache.tags.age_task_id_blocks_1024::1          154                       # Occupied blocks per task id
system.cpu.icache.tags.age_task_id_blocks_1024::2           21                       # Occupied blocks per task id
system.cpu.icache.tags.age_task_id_blocks_1024::3            2                       # Occupied blocks per task id
system.cpu.icache.tags.occ_task_id_percent::1024            1                       # Percentage of cache occupancy per task id
system.cpu.icache.tags.tag_accesses            495898                       # Number of tag accesses
system.cpu.icache.tags.data_accesses           495898                       # Number of data accesses
system.cpu.dtb.walker.pwrStateResidencyTicks::UNDEFINED   1101485200                       # Cumulative time (in ticks) in various power states
system.cpu.interrupts.clk_domain.clock           6400                       # Clock period in ticks
system.cpu.itb.walker.pwrStateResidencyTicks::UNDEFINED   1101485200                       # Cumulative time (in ticks) in various power states
system.cpu.dcache.pwrStateResidencyTicks::UNDEFINED   1101485200                       # Cumulative time (in ticks) in various power states
system.cpu.dcache.demand_hits::.cpu.data       683134                       # number of demand (read+write) hits
system.cpu.dcache.demand_hits::total           683134                       # number of demand (read+write) hits
system.cpu.dcache.overall_hits::.cpu.data       683134                       # number of overall hits
system.cpu.dcache.overall_hits::total          683134                       # number of overall hits
system.cpu.dcache.demand_misses::.cpu.data        34354                       # number of demand (read+write) misses
system.cpu.dcache.demand_misses::total          34354                       # number of demand (read+write) misses
system.cpu.dcache.overall_misses::.cpu.data        34354                       # number of overall misses
system.cpu.dcache.overall_misses::total         34354                       # number of overall misses
system.cpu.dcache.demand_miss_latency::.cpu.data   1680948799                       # number of demand (read+write) miss cycles
system.cpu.dcache.demand_miss_latency::total   1680948799                       # number of demand (read+write) miss cycles
system.cpu.dcache.overall_miss_latency::.cpu.data   1680948799                       # number of overall miss cycles
system.cpu.dcache.overall_miss_latency::total   1680948799                       # number of overall miss cycles
system.cpu.dcache.demand_accesses::.cpu.data       717488                       # number of demand (read+write) accesses
system.cpu.dcache.demand_accesses::total       717488                       # number of demand (read+write) accesses
system.cpu.dcache.overall_accesses::.cpu.data       717488                       # number of overall (read+write) accesses
system.cpu.dcache.overall_accesses::total       717488                       # number of overall (read+write) accesses
system.cpu.dcache.demand_miss_rate::.cpu.data     0.047881                       # miss rate for demand accesses
system.cpu.dcache.demand_miss_rate::total     0.047881                       # miss rate for demand accesses
system.cpu.dcache.overall_miss_rate::.cpu.data     0.047881                       # miss rate for overall accesses
system.cpu.dcache.overall_miss_rate::total     0.047881                       # miss rate for overall accesses
system.cpu.dcache.demand_avg_miss_latency::.cpu.data 48930.220615                       # average overall miss latency
system.cpu.dcache.demand_avg_miss_latency::total 48930.220615                       # average overall miss latency
system.cpu.dcache.overall_avg_miss_latency::.cpu.data 48930.220615                       # average overall miss latency
system.cpu.dcache.overall_avg_miss_latency::total 48930.220615                       # average overall miss latency
system.cpu.dcache.blocked_cycles::no_mshrs        30124                       # number of cycles access was blocked
system.cpu.dcache.blocked_cycles::no_targets          147                       # number of cycles access was blocked
system.cpu.dcache.blocked::no_mshrs               786                       # number of cycles access was blocked
system.cpu.dcache.blocked::no_targets               2                       # number of cycles access was blocked
system.cpu.dcache.avg_blocked_cycles::no_mshrs    38.325700                       # average number of cycles each access was blocked
system.cpu.dcache.avg_blocked_cycles::no_targets    73.500000                       # average number of cycles each access was blocked
system.cpu.dcache.unused_prefetches              1834                       # number of HardPF blocks evicted w/o reference
system.cpu.dcache.writebacks::.writebacks         2775                       # number of writebacks
system.cpu.dcache.writebacks::total              2775                       # number of writebacks
system.cpu.dcache.demand_mshr_hits::.cpu.data        21845                       # number of demand (read+write) MSHR hits
system.cpu.dcache.demand_mshr_hits::total        21845                       # number of demand (read+write) MSHR hits
system.cpu.dcache.overall_mshr_hits::.cpu.data        21845                       # number of overall MSHR hits
system.cpu.dcache.overall_mshr_hits::total        21845                       # number of overall MSHR hits
system.cpu.dcache.demand_mshr_misses::.cpu.data        12509                       # number of demand (read+write) MSHR misses
system.cpu.dcache.demand_mshr_misses::total        12509                       # number of demand (read+write) MSHR misses
system.cpu.dcache.overall_mshr_misses::.cpu.data        12509                       # number of overall MSHR misses
system.cpu.dcache.overall_mshr_misses::.cpu.dcache.prefetcher         4440                       # number of overall MSHR misses
system.cpu.dcache.overall_mshr_misses::total        16949                       # number of overall MSHR misses
system.cpu.dcache.demand_mshr_miss_latency::.cpu.data    577380799                       # number of demand (read+write) MSHR miss cycles
system.cpu.dcache.demand_mshr_miss_latency::total    577380799                       # number of demand (read+write) MSHR miss cycles
system.cpu.dcache.overall_mshr_miss_latency::.cpu.data    577380799                       # number of overall MSHR miss cycles
system.cpu.dcache.overall_mshr_miss_latency::.cpu.dcache.prefetcher    249690783                       # number of overall MSHR miss cycles
system.cpu.dcache.overall_mshr_miss_latency::total    827071582                       # number of overall MSHR miss cycles
system.cpu.dcache.demand_mshr_miss_rate::.cpu.data     0.017434                       # mshr miss rate for demand accesses
system.cpu.dcache.demand_mshr_miss_rate::total     0.017434                       # mshr miss rate for demand accesses
system.cpu.dcache.overall_mshr_miss_rate::.cpu.data     0.017434                       # mshr miss rate for overall accesses
system.cpu.dcache.overall_mshr_miss_rate::.cpu.dcache.prefetcher          inf                       # mshr miss rate for overall accesses
system.cpu.dcache.overall_mshr_miss_rate::total     0.023623                       # mshr miss rate for overall accesses
system.cpu.dcache.demand_avg_mshr_miss_latency::.cpu.data 46157.230714                       # average overall mshr miss latency
system.cpu.dcache.demand_avg_mshr_miss_latency::total 46157.230714                       # average overall mshr miss latency
system.cpu.dcache.overall_avg_mshr_miss_latency::.cpu.data 46157.230714                       # average overall mshr miss latency
system.cpu.dcache.overall_avg_mshr_miss_latency::.cpu.dcache.prefetcher 56236.662838                       # average overall mshr miss latency
system.cpu.dcache.overall_avg_mshr_miss_latency::total 48797.662517                       # average overall mshr miss latency
system.cpu.dcache.replacements                  15925                       # number of replacements
system.cpu.dcache.ReadReq_hits::.cpu.data       508684                       # number of ReadReq hits
system.cpu.dcache.ReadReq_hits::total          508684                       # number of ReadReq hits
system.cpu.dcache.ReadReq_misses::.cpu.data        32241                       # number of ReadReq misses
system.cpu.dcache.ReadReq_misses::total         32241                       # number of ReadReq misses
system.cpu.dcache.ReadReq_miss_latency::.cpu.data   1577334400                       # number of ReadReq miss cycles
system.cpu.dcache.ReadReq_miss_latency::total   1577334400                       # number of ReadReq miss cycles
system.cpu.dcache.ReadReq_accesses::.cpu.data       540925                       # number of ReadReq accesses(hits+misses)
system.cpu.dcache.ReadReq_accesses::total       540925                       # number of ReadReq accesses(hits+misses)
system.cpu.dcache.ReadReq_miss_rate::.cpu.data     0.059603                       # miss rate for ReadReq accesses
system.cpu.dcache.ReadReq_miss_rate::total     0.059603                       # miss rate for ReadReq accesses
system.cpu.dcache.ReadReq_avg_miss_latency::.cpu.data 48923.246798                       # average ReadReq miss latency
system.cpu.dcache.ReadReq_avg_miss_latency::total 48923.246798                       # average ReadReq miss latency
system.cpu.dcache.ReadReq_mshr_hits::.cpu.data        21811                       # number of ReadReq MSHR hits
system.cpu.dcache.ReadReq_mshr_hits::total        21811                       # number of ReadReq MSHR hits
system.cpu.dcache.ReadReq_mshr_misses::.cpu.data        10430                       # number of ReadReq MSHR misses
system.cpu.dcache.ReadReq_mshr_misses::total        10430                       # number of ReadReq MSHR misses
system.cpu.dcache.ReadReq_mshr_miss_latency::.cpu.data    476664800                       # number of ReadReq MSHR miss cycles
system.cpu.dcache.ReadReq_mshr_miss_latency::total    476664800                       # number of ReadReq MSHR miss cycles
system.cpu.dcache.ReadReq_mshr_miss_rate::.cpu.data     0.019282                       # mshr miss rate for ReadReq accesses
system.cpu.dcache.ReadReq_mshr_miss_rate::total     0.019282                       # mshr miss rate for ReadReq accesses
system.cpu.dcache.ReadReq_avg_mshr_miss_latency::.cpu.data 45701.323106                       # average ReadReq mshr miss latency
system.cpu.dcache.ReadReq_avg_mshr_miss_latency::total 45701.323106                       # average ReadReq mshr miss latency
system.cpu.dcache.WriteReq_hits::.cpu.data       174450                       # number of WriteReq hits
system.cpu.dcache.WriteReq_hits::total         174450                       # number of WriteReq hits
system.cpu.dcache.WriteReq_misses::.cpu.data         2113                       # number of WriteReq misses
system.cpu.dcache.WriteReq_misses::total         2113                       # number of WriteReq misses
system.cpu.dcache.WriteReq_miss_latency::.cpu.data    103614399                       # number of WriteReq miss cycles
system.cpu.dcache.WriteReq_miss_latency::total    103614399                       # number of WriteReq miss cycles
system.cpu.dcache.WriteReq_accesses::.cpu.data       176563                       # number of WriteReq accesses(hits+misses)
system.cpu.dcache.WriteReq_accesses::total       176563                       # number of WriteReq accesses(hits+misses)
system.cpu.dcache.WriteReq_miss_rate::.cpu.data     0.011967                       # miss rate for WriteReq accesses
system.cpu.dcache.WriteReq_miss_rate::total     0.011967                       # miss rate for WriteReq accesses
system.cpu.dcache.WriteReq_avg_miss_latency::.cpu.data 49036.629910                       # average WriteReq miss latency
system.cpu.dcache.WriteReq_avg_miss_latency::total 49036.629910                       # average WriteReq miss latency
system.cpu.dcache.WriteReq_mshr_hits::.cpu.data           34                       # number of WriteReq MSHR hits
system.cpu.dcache.WriteReq_mshr_hits::total           34                       # number of WriteReq MSHR hits
system.cpu.dcache.WriteReq_mshr_misses::.cpu.data         2079                       # number of WriteReq MSHR misses
system.cpu.dcache.WriteReq_mshr_misses::total         2079                       # number of WriteReq MSHR misses
[...]
system.l2cache.demand_mshr_misses::.cpu.data          135                       # number of demand (read+write) MSHR misses
system.l2cache.demand_mshr_misses::.cpu.dcache.prefetcher           53                       # number of demand (read+write) MSHR misses
system.l2cache.demand_mshr_misses::total          431                       # number of demand (read+write) MSHR misses
system.l2cache.overall_mshr_misses::.cpu.inst          243                       # number of overall MSHR misses
system.l2cache.overall_mshr_misses::.cpu.data          135                       # number of overall MSHR misses
system.l2cache.overall_mshr_misses::.cpu.dcache.prefetcher           53                       # number of overall MSHR misses
system.l2cache.overall_mshr_misses::total          431                       # number of overall MSHR misses
system.l2cache.demand_mshr_miss_latency::.cpu.inst     14443600                       # number of demand (read+write) MSHR miss cycles
system.l2cache.demand_mshr_miss_latency::.cpu.data      7982000                       # number of demand (read+write) MSHR miss cycles
system.l2cache.demand_mshr_miss_latency::.cpu.dcache.prefetcher      3395948                       # number of demand (read+write) MSHR miss cycles
system.l2cache.demand_mshr_miss_latency::total     25821548                       # number of demand (read+write) MSHR miss cycles
system.l2cache.overall_mshr_miss_latency::.cpu.inst     14443600                       # number of overall MSHR miss cycles
system.l2cache.overall_mshr_miss_latency::.cpu.data      7982000                       # number of overall MSHR miss cycles
system.l2cache.overall_mshr_miss_latency::.cpu.dcache.prefetcher      3395948                       # number of overall MSHR miss cycles
system.l2cache.overall_mshr_miss_latency::total     25821548                       # number of overall MSHR miss cycles
system.l2cache.demand_mshr_miss_rate::.cpu.inst     0.605985                       # mshr miss rate for demand accesses
system.l2cache.demand_mshr_miss_rate::.cpu.data     0.496324                       # mshr miss rate for demand accesses
system.l2cache.demand_mshr_miss_rate::.cpu.dcache.prefetcher     0.803030                       # mshr miss rate for demand accesses
system.l2cache.demand_mshr_miss_rate::total     0.583221                       # mshr miss rate for demand accesses
system.l2cache.overall_mshr_miss_rate::.cpu.inst     0.605985                       # mshr miss rate for overall accesses
system.l2cache.overall_mshr_miss_rate::.cpu.data     0.496324                       # mshr miss rate for overall accesses
system.l2cache.overall_mshr_miss_rate::.cpu.dcache.prefetcher     0.803030                       # mshr miss rate for overall accesses
system.l2cache.overall_mshr_miss_rate::total     0.583221                       # mshr miss rate for overall accesses
system.l2cache.demand_avg_mshr_miss_latency::.cpu.inst 59438.683128                       # average overall mshr miss latency
system.l2cache.demand_avg_mshr_miss_latency::.cpu.data 59125.925926                       # average overall mshr miss latency
system.l2cache.demand_avg_mshr_miss_latency::.cpu.dcache.prefetcher 64074.490566                       # average overall mshr miss latency
system.l2cache.demand_avg_mshr_miss_latency::total 59910.784223                       # average overall mshr miss latency
system.l2cache.overall_avg_mshr_miss_latency::.cpu.inst 59438.683128                       # average overall mshr miss latency
system.l2cache.overall_avg_mshr_miss_latency::.cpu.data 59125.925926                       # average overall mshr miss latency
system.l2cache.overall_avg_mshr_miss_latency::.cpu.dcache.prefetcher 64074.490566                       # average overall mshr miss latency
system.l2cache.overall_avg_mshr_miss_latency::total 59910.784223                       # average overall mshr miss latency
system.l2cache.replacements                       441                       # number of replacements
system.l2cache.WritebackDirty_hits::.writebacks           90                       # number of WritebackDirty hits
system.l2cache.WritebackDirty_hits::total           90                       # number of WritebackDirty hits
system.l2cache.WritebackDirty_accesses::.writebacks           90                       # number of WritebackDirty accesses(hits+misses)
system.l2cache.WritebackDirty_accesses::total           90                       # number of WritebackDirty accesses(hits+misses)
system.l2cache.CleanEvict_mshr_misses::.writebacks           10                       # number of CleanEvict MSHR misses
system.l2cache.CleanEvict_mshr_misses::total           10                       # number of CleanEvict MSHR misses
system.l2cache.CleanEvict_mshr_miss_rate::.writebacks          inf                       # mshr miss rate for CleanEvict accesses
system.l2cache.CleanEvict_mshr_miss_rate::total          inf                       # mshr miss rate for CleanEvict accesses
system.l2cache.ReadExReq_hits::.cpu.data            6                       # number of ReadExReq hits
system.l2cache.ReadExReq_hits::total                6                       # number of ReadExReq hits
system.l2cache.ReadExReq_misses::.cpu.data            6                       # number of ReadExReq misses
system.l2cache.ReadExReq_misses::total              6                       # number of ReadExReq misses
system.l2cache.ReadExReq_miss_latency::.cpu.data       446800                       # number of ReadExReq miss cycles
system.l2cache.ReadExReq_miss_latency::total       446800                       # number of ReadExReq miss cycles
system.l2cache.ReadExReq_accesses::.cpu.data           12                       # number of ReadExReq accesses(hits+misses)
system.l2cache.ReadExReq_accesses::total           12                       # number of ReadExReq accesses(hits+misses)
system.l2cache.ReadExReq_miss_rate::.cpu.data     0.500000                       # miss rate for ReadExReq accesses
system.l2cache.ReadExReq_miss_rate::total     0.500000                       # miss rate for ReadExReq accesses
system.l2cache.ReadExReq_avg_miss_latency::.cpu.data 74466.666667                       # average ReadExReq miss latency
system.l2cache.ReadExReq_avg_miss_latency::total 74466.666667                       # average ReadExReq miss latency
system.l2cache.ReadExReq_mshr_misses::.cpu.data            6                       # number of ReadExReq MSHR misses
system.l2cache.ReadExReq_mshr_misses::total            6                       # number of ReadExReq MSHR misses
system.l2cache.ReadExReq_mshr_miss_latency::.cpu.data       398800                       # number of ReadExReq MSHR miss cycles
system.l2cache.ReadExReq_mshr_miss_latency::total       398800                       # number of ReadExReq MSHR miss cycles
system.l2cache.ReadExReq_mshr_miss_rate::.cpu.data     0.500000                       # mshr miss rate for ReadExReq accesses
system.l2cache.ReadExReq_mshr_miss_rate::total     0.500000                       # mshr miss rate for ReadExReq accesses
system.l2cache.ReadExReq_avg_mshr_miss_latency::.cpu.data 66466.666667                       # average ReadExReq mshr miss latency
system.l2cache.ReadExReq_avg_mshr_miss_latency::total 66466.666667                       # average ReadExReq mshr miss latency
system.l2cache.ReadSharedReq_hits::.cpu.inst          158                       # number of ReadSharedReq hits
system.l2cache.ReadSharedReq_hits::.cpu.data          131                       # number of ReadSharedReq hits
system.l2cache.ReadSharedReq_hits::.cpu.dcache.prefetcher           13                       # number of ReadSharedReq hits
system.l2cache.ReadSharedReq_hits::total          302                       # number of ReadSharedReq hits
system.l2cache.ReadSharedReq_misses::.cpu.inst          243                       # number of ReadSharedReq misses
system.l2cache.ReadSharedReq_misses::.cpu.data          129                       # number of ReadSharedReq misses
system.l2cache.ReadSharedReq_misses::.cpu.dcache.prefetcher           53                       # number of ReadSharedReq misses
system.l2cache.ReadSharedReq_misses::total          425                       # number of ReadSharedReq misses
system.l2cache.ReadSharedReq_miss_latency::.cpu.inst     16379600                       # number of ReadSharedReq miss cycles
system.l2cache.ReadSharedReq_miss_latency::.cpu.data      8615200                       # number of ReadSharedReq miss cycles
system.l2cache.ReadSharedReq_miss_latency::.cpu.dcache.prefetcher      3819948                       # number of ReadSharedReq miss cycles
system.l2cache.ReadSharedReq_miss_latency::total     28814748                       # number of ReadSharedReq miss cycles
system.l2cache.ReadSharedReq_accesses::.cpu.inst          401                       # number of ReadSharedReq accesses(hits+misses)
system.l2cache.ReadSharedReq_accesses::.cpu.data          260                       # number of ReadSharedReq accesses(hits+misses)
system.l2cache.ReadSharedReq_accesses::.cpu.dcache.prefetcher           66                       # number of ReadSharedReq accesses(hits+misses)
system.l2cache.ReadSharedReq_accesses::total          727                       # number of ReadSharedReq accesses(hits+misses)
system.l2cache.ReadSharedReq_miss_rate::.cpu.inst     0.605985                       # miss rate for ReadSharedReq accesses
system.l2cache.ReadSharedReq_miss_rate::.cpu.data     0.496154                       # miss rate for ReadSharedReq accesses
system.l2cache.ReadSharedReq_miss_rate::.cpu.dcache.prefetcher     0.803030                       # miss rate for ReadSharedReq accesses
system.l2cache.ReadSharedReq_miss_rate::total     0.584594                       # miss rate for ReadSharedReq accesses
system.l2cache.ReadSharedReq_avg_miss_latency::.cpu.inst 67405.761317                       # average ReadSharedReq miss latency
system.l2cache.ReadSharedReq_avg_miss_latency::.cpu.data 66784.496124                       # average ReadSharedReq miss latency
system.l2cache.ReadSharedReq_avg_miss_latency::.cpu.dcache.prefetcher 72074.490566                       # average ReadSharedReq miss latency
system.l2cache.ReadSharedReq_avg_miss_latency::total 67799.407059                       # average ReadSharedReq miss latency
system.l2cache.ReadSharedReq_mshr_misses::.cpu.inst          243                       # number of ReadSharedReq MSHR misses
system.l2cache.ReadSharedReq_mshr_misses::.cpu.data          129                       # number of ReadSharedReq MSHR misses
system.l2cache.ReadSharedReq_mshr_misses::.cpu.dcache.prefetcher           53                       # number of ReadSharedReq MSHR misses
system.l2cache.ReadSharedReq_mshr_misses::total          425                       # number of ReadSharedReq MSHR misses
system.l2cache.ReadSharedReq_mshr_miss_latency::.cpu.inst     14443600                       # number of ReadSharedReq MSHR miss cycles
system.l2cache.ReadSharedReq_mshr_miss_latency::.cpu.data      7583200                       # number of ReadSharedReq MSHR miss cycles
system.l2cache.ReadSharedReq_mshr_miss_latency::.cpu.dcache.prefetcher      3395948                       # number of ReadSharedReq MSHR miss cycles
system.l2cache.ReadSharedReq_mshr_miss_latency::total     25422748                       # number of ReadSharedReq MSHR miss cycles
system.l2cache.ReadSharedReq_mshr_miss_rate::.cpu.inst     0.605985                       # mshr miss rate for ReadSharedReq accesses
system.l2cache.ReadSharedReq_mshr_miss_rate::.cpu.data     0.496154                       # mshr miss rate for ReadSharedReq accesses
system.l2cache.ReadSharedReq_mshr_miss_rate::.cpu.dcache.prefetcher     0.803030                       # mshr miss rate for ReadSharedReq accesses
system.l2cache.ReadSharedReq_mshr_miss_rate::total     0.584594                       # mshr miss rate for ReadSharedReq accesses
system.l2cache.ReadSharedReq_avg_mshr_miss_latency::.cpu.inst 59438.683128                       # average ReadSharedReq mshr miss latency
system.l2cache.ReadSharedReq_avg_mshr_miss_latency::.cpu.data 58784.496124                       # average ReadSharedReq mshr miss latency
system.l2cache.ReadSharedReq_avg_mshr_miss_latency::.cpu.dcache.prefetcher 64074.490566                       # average ReadSharedReq mshr miss latency
system.l2cache.ReadSharedReq_avg_mshr_miss_latency::total 59818.230588                       # average ReadSharedReq mshr miss latency
system.l2cache.prefetcher.pwrStateResidencyTicks::UNDEFINED     30389600                       # Cumulative time (in ticks) in various power states
system.l2cache.tags.pwrStateResidencyTicks::UNDEFINED     30389600                       # Cumulative time (in ticks) in various power states
system.l2cache.tags.tagsinuse                    4096                       # Cycle average of tags in use
system.l2cache.tags.total_refs                  13852                       # Total number of references to valid blocks.
system.l2cache.tags.sampled_refs                 4537                       # Sample count of references to valid blocks.
system.l2cache.tags.avg_refs                 3.053119                       # Average number of references to valid blocks.
system.l2cache.tags.warmup_cycle                    0                       # Cycle when the warmup percentage was hit.
system.l2cache.tags.occ_blocks::.writebacks    40.528457                       # Average occupied blocks per requestor
system.l2cache.tags.occ_blocks::.cpu.inst  1125.628390                       # Average occupied blocks per requestor
system.l2cache.tags.occ_blocks::.cpu.data  1822.944335                       # Average occupied blocks per requestor
system.l2cache.tags.occ_blocks::.cpu.dcache.prefetcher   970.725707                       # Average occupied blocks per requestor
system.l2cache.tags.occ_blocks::.l2cache.prefetcher   136.173112                       # Average occupied blocks per requestor
system.l2cache.tags.occ_percent::.writebacks     0.009895                       # Average percentage of cache occupancy
system.l2cache.tags.occ_percent::.cpu.inst     0.274812                       # Average percentage of cache occupancy
system.l2cache.tags.occ_percent::.cpu.data     0.445055                       # Average percentage of cache occupancy
system.l2cache.tags.occ_percent::.cpu.dcache.prefetcher     0.236994                       # Average percentage of cache occupancy
system.l2cache.tags.occ_percent::.l2cache.prefetcher     0.033245                       # Average percentage of cache occupancy
system.l2cache.tags.occ_percent::total              1                       # Average percentage of cache occupancy
system.l2cache.tags.occ_task_id_blocks::1022         1043                       # Occupied blocks per task id
system.l2cache.tags.occ_task_id_blocks::1024         3053                       # Occupied blocks per task id
system.l2cache.tags.age_task_id_blocks_1022::0            7                       # Occupied blocks per task id
system.l2cache.tags.age_task_id_blocks_1022::1          125                       # Occupied blocks per task id
system.l2cache.tags.age_task_id_blocks_1022::2          908                       # Occupied blocks per task id
system.l2cache.tags.age_task_id_blocks_1022::3            3                       # Occupied blocks per task id
system.l2cache.tags.age_task_id_blocks_1024::0          168                       # Occupied blocks per task id
system.l2cache.tags.age_task_id_blocks_1024::1          851                       # Occupied blocks per task id
system.l2cache.tags.age_task_id_blocks_1024::2         1991                       # Occupied blocks per task id
system.l2cache.tags.age_task_id_blocks_1024::3           43                       # Occupied blocks per task id
system.l2cache.tags.occ_task_id_percent::1022     0.254639                       # Percentage of cache occupancy per task id
system.l2cache.tags.occ_task_id_percent::1024     0.745361                       # Percentage of cache occupancy per task id
system.l2cache.tags.tag_accesses                12249                       # Number of tag accesses
system.l2cache.tags.data_accesses               12249                       # Number of data accesses
system.mem_ctrl.pwrStateResidencyTicks::UNDEFINED     30389600                       # Cumulative time (in ticks) in various power states
system.mem_ctrl.bytes_read::.cpu.inst           15488                       # Number of bytes read from this memory
system.mem_ctrl.bytes_read::.cpu.data            8640                       # Number of bytes read from this memory
system.mem_ctrl.bytes_read::.cpu.dcache.prefetcher         3392                       # Number of bytes read from this memory
system.mem_ctrl.bytes_read::total               27520                       # Number of bytes read from this memory
system.mem_ctrl.bytes_inst_read::.cpu.inst        15488                       # Number of instructions bytes read from this memory
system.mem_ctrl.bytes_inst_read::total          15488                       # Number of instructions bytes read from this memory
system.mem_ctrl.bytes_written::.writebacks         1664                       # Number of bytes written to this memory
system.mem_ctrl.bytes_written::total             1664                       # Number of bytes written to this memory
system.mem_ctrl.num_reads::.cpu.inst              242                       # Number of read requests responded to by this memory
system.mem_ctrl.num_reads::.cpu.data              135                       # Number of read requests responded to by this memory
system.mem_ctrl.num_reads::.cpu.dcache.prefetcher           53                       # Number of read requests responded to by this memory
system.mem_ctrl.num_reads::total                  430                       # Number of read requests responded to by this memory
system.mem_ctrl.num_writes::.writebacks            26                       # Number of write requests responded to by this memory
system.mem_ctrl.num_writes::total                  26                       # Number of write requests responded to by this memory
system.mem_ctrl.bw_read::.cpu.inst          509648037                       # Total read bandwidth from this memory (bytes/s)
system.mem_ctrl.bw_read::.cpu.data          284307790                       # Total read bandwidth from this memory (bytes/s)
system.mem_ctrl.bw_read::.cpu.dcache.prefetcher    111617132                       # Total read bandwidth from this memory (bytes/s)
system.mem_ctrl.bw_read::total              905572959                       # Total read bandwidth from this memory (bytes/s)
system.mem_ctrl.bw_inst_read::.cpu.inst     509648037                       # Instruction read bandwidth from this memory (bytes/s)
system.mem_ctrl.bw_inst_read::total         509648037                       # Instruction read bandwidth from this memory (bytes/s)
system.mem_ctrl.bw_write::.writebacks        54755574                       # Write bandwidth from this memory (bytes/s)
system.mem_ctrl.bw_write::total              54755574                       # Write bandwidth from this memory (bytes/s)
system.mem_ctrl.bw_total::.writebacks        54755574                       # Total bandwidth to/from this memory (bytes/s)
system.mem_ctrl.bw_total::.cpu.inst         509648037                       # Total bandwidth to/from this memory (bytes/s)
system.mem_ctrl.bw_total::.cpu.data         284307790                       # Total bandwidth to/from this memory (bytes/s)
system.mem_ctrl.bw_total::.cpu.dcache.prefetcher    111617132                       # Total bandwidth to/from this memory (bytes/s)
system.mem_ctrl.bw_total::total             960328533                       # Total bandwidth to/from this memory (bytes/s)

---------- End Simulation Statistics   ----------
