
---------- Begin Simulation Statistics ----------
final_tick                                 1077868000                       # Number of ticks from beginning of simulation (restored from checkpoints and never reset)
host_inst_rate                                 152674                       # Simulator instruction rate (inst/s)
host_mem_usage                                4405800                       # Number of bytes of host memory used
host_op_rate                                   265428                       # Simulator op (including micro ops) rate (op/s)
host_seconds                                    13.28                       # Real time elapsed on the host
host_tick_rate                               81165475                       # Simulator tick rate (ticks/s)
sim_freq                                 1000000000000                       # Frequency of simulated ticks
sim_insts                                     2027475                       # Number of instructions simulated
sim_ops                                       3524846                       # Number of ops (including micro ops) simulated
sim_seconds                                  0.001078                       # Number of seconds simulated
sim_ticks                                  1077868000                       # Number of ticks simulated
system.cpu.branchPred.BTBCorrect                    0                       # Number of correct BTB predictions (this stat may not work properly.
system.cpu.branchPred.BTBHitPct              0.000000                       # BTB Hit Percentage
system.cpu.branchPred.BTBHits                       0                       # Number of BTB hits
system.cpu.branchPred.BTBLookups               425626                       # Number of BTB lookups
system.cpu.branchPred.RASInCorrect                  5                       # Number of incorrect RAS predictions.
system.cpu.branchPred.condIncorrect             23381                       # Number of conditional branches incorrect
system.cpu.branchPred.condPredicted            456478                       # Number of conditional branches predicted
system.cpu.branchPred.indirectHits             234726                       # Number of indirect target hits.
system.cpu.branchPred.indirectLookups          425626                       # Number of indirect predictor lookups.
system.cpu.branchPred.indirectMisses           190900                       # Number of indirect misses.
system.cpu.branchPred.lookups                  481596                       # Number of BP lookups
system.cpu.branchPred.usedRAS                   10797                       # Number of times the RAS was used to get a target.
system.cpu.branchPredindirectMispredicted        11713                       # Number of mispredicted indirect branches.
system.cpu.cc_regfile_reads                   2335873                       # number of cc regfile reads
system.cpu.cc_regfile_writes                  1903899                       # number of cc regfile writes
system.cpu.commit.amos                              0                       # Number of atomic instructions committed
system.cpu.commit.branchMispredicts             23480                       # The number of times a branch was mispredicted
system.cpu.commit.branches                     339821                       # Number of branches committed
system.cpu.commit.bw_lim_events                587858                       # number cycles where commit BW limit reached
system.cpu.commit.commitNonSpecStalls             742                       # The number of times commit has been forced to stall to communicate backwards
system.cpu.commit.commitSquashedInsts          873261                       # The number of squashed insts skipped by commit
system.cpu.commit.committedInsts              2027475                       # Number of instructions committed
system.cpu.commit.committedOps                3524846                       # Number of ops (including micro ops) committed
system.cpu.commit.committed_per_cycle::samples      2296250                       # Number of insts commited each cycle
system.cpu.commit.committed_per_cycle::mean     1.535045                       # Number of insts commited each cycle
system.cpu.commit.committed_per_cycle::stdev     1.726957                       # Number of insts commited each cycle
system.cpu.commit.committed_per_cycle::underflows            0      0.00%      0.00% # Number of insts commited each cycle
system.cpu.commit.committed_per_cycle::0      1149851     50.08%     50.08% # Number of insts commited each cycle
system.cpu.commit.committed_per_cycle::1       168765      7.35%     57.42% # Number of insts commited each cycle
system.cpu.commit.committed_per_cycle::2       164679      7.17%     64.60% # Number of insts commited each cycle
system.cpu.commit.committed_per_cycle::3       225097      9.80%     74.40% # Number of insts commited each cycle
system.cpu.commit.committed_per_cycle::4       587858     25.60%    100.00% # Number of insts commited each cycle
system.cpu.commit.committed_per_cycle::overflows            0      0.00%    100.00% # Number of insts commited each cycle
system.cpu.commit.committed_per_cycle::min_value            0                       # Number of insts commited each cycle
system.cpu.commit.committed_per_cycle::max_value            4                       # Number of insts commited each cycle
system.cpu.commit.committed_per_cycle::total      2296250                       # Number of insts commited each cycle
system.cpu.commit.fp_insts                      73218                       # Number of committed floating point instructions.
system.cpu.commit.function_calls                 9110                       # Number of function calls committed.
system.cpu.commit.int_insts                   3470348                       # Number of committed integer instructions.
system.cpu.commit.loads                        485375                       # Number of loads committed
system.cpu.commit.membars                           1                       # Number of memory barriers committed
system.cpu.commit.op_class_0::No_OpClass        20322      0.58%      0.58% # Class of committed instruction
system.cpu.commit.op_class_0::IntAlu          2772542     78.66%     79.23% # Class of committed instruction
system.cpu.commit.op_class_0::IntMult              30      0.00%     79.23% # Class of committed instruction
system.cpu.commit.op_class_0::IntDiv            37452      1.06%     80.30% # Class of committed instruction
system.cpu.commit.op_class_0::FloatAdd           2853      0.08%     80.38% # Class of committed instruction
system.cpu.commit.op_class_0::FloatCmp              0      0.00%     80.38% # Class of committed instruction
system.cpu.commit.op_class_0::FloatCvt           1216      0.03%     80.41% # Class of committed instruction
system.cpu.commit.op_class_0::FloatMult             0      0.00%     80.41% # Class of committed instruction
system.cpu.commit.op_class_0::FloatMultAcc            0      0.00%     80.41% # Class of committed instruction
system.cpu.commit.op_class_0::FloatDiv              0      0.00%     80.41% # Class of committed instruction
system.cpu.commit.op_class_0::FloatMisc             0      0.00%     80.41% # Class of committed instruction
system.cpu.commit.op_class_0::FloatSqrt             0      0.00%     80.41% # Class of committed instruction
system.cpu.commit.op_class_0::SimdAdd            6210      0.18%     80.59% # Class of committed instruction
system.cpu.commit.op_class_0::SimdAddAcc            0      0.00%     80.59% # Class of committed instruction
system.cpu.commit.op_class_0::SimdAlu           11158      0.32%     80.91% # Class of committed instruction
system.cpu.commit.op_class_0::SimdCmp               0      0.00%     80.91% # Class of committed instruction
system.cpu.commit.op_class_0::SimdCvt           12114      0.34%     81.25% # Class of committed instruction
system.cpu.commit.op_class_0::SimdMisc           6527      0.19%     81.43% # Class of committed instruction
system.cpu.commit.op_class_0::SimdMult              0      0.00%     81.43% # Class of committed instruction
system.cpu.commit.op_class_0::SimdMultAcc            0      0.00%     81.43% # Class of committed instruction
system.cpu.commit.op_class_0::SimdShift          1056      0.03%     81.46% # Class of committed instruction
system.cpu.commit.op_class_0::SimdShiftAcc            0      0.00%     81.46% # Class of committed instruction
system.cpu.commit.op_class_0::SimdDiv               0      0.00%     81.46% # Class of committed instruction
system.cpu.commit.op_class_0::SimdSqrt              0      0.00%     81.46% # Class of committed instruction
system.cpu.commit.op_class_0::SimdFloatAdd            0      0.00%     81.46% # Class of committed instruction
system.cpu.commit.op_class_0::SimdFloatAlu            0      0.00%     81.46% # Class of committed instruction
system.cpu.commit.op_class_0::SimdFloatCmp            0      0.00%     81.46% # Class of committed instruction
system.cpu.commit.op_class_0::SimdFloatCvt            0      0.00%     81.46% # Class of committed instruction
system.cpu.commit.op_class_0::SimdFloatDiv            0      0.00%     81.46% # Class of committed instruction
system.cpu.commit.op_class_0::SimdFloatMisc            0      0.00%     81.46% # Class of committed instruction
system.cpu.commit.op_class_0::SimdFloatMult            0      0.00%     81.46% # Class of committed instruction
system.cpu.commit.op_class_0::SimdFloatMultAcc            0      0.00%     81.46% # Class of committed instruction
system.cpu.commit.op_class_0::SimdFloatSqrt            0      0.00%     81.46% # Class of committed instruction
system.cpu.commit.op_class_0::SimdReduceAdd            0      0.00%     81.46% # Class of committed instruction
system.cpu.commit.op_class_0::SimdReduceAlu            0      0.00%     81.46% # Class of committed instruction
system.cpu.commit.op_class_0::SimdReduceCmp            0      0.00%     81.46% # Class of committed instruction
system.cpu.commit.op_class_0::SimdFloatReduceAdd            0      0.00%     81.46% # Class of committed instruction
system.cpu.commit.op_class_0::SimdFloatReduceCmp            0      0.00%     81.46% # Class of committed instruction
system.cpu.commit.op_class_0::SimdAes               0      0.00%     81.46% # Class of committed instruction
system.cpu.commit.op_class_0::SimdAesMix            0      0.00%     81.46% # Class of committed instruction
system.cpu.commit.op_class_0::SimdSha1Hash            0      0.00%     81.46% # Class of committed instruction
system.cpu.commit.op_class_0::SimdSha1Hash2            0      0.00%     81.46% # Class of committed instruction
system.cpu.commit.op_class_0::SimdSha256Hash            0      0.00%     81.46% # Class of committed instruction
system.cpu.commit.op_class_0::SimdSha256Hash2            0      0.00%     81.46% # Class of committed instruction
system.cpu.commit.op_class_0::SimdShaSigma2            0      0.00%     81.46% # Class of committed instruction
system.cpu.commit.op_class_0::SimdShaSigma3            0      0.00%     81.46% # Class of committed instruction
system.cpu.commit.op_class_0::SimdPredAlu            0      0.00%     81.46% # Class of committed instruction
system.cpu.commit.op_class_0::MemRead          466241     13.23%     94.69% # Class of committed instruction
system.cpu.commit.op_class_0::MemWrite         155880      4.42%     99.11% # Class of committed instruction
system.cpu.commit.op_class_0::FloatMemRead        19134      0.54%     99.66% # Class of committed instruction
system.cpu.commit.op_class_0::FloatMemWrite        12111      0.34%    100.00% # Class of committed instruction
system.cpu.commit.op_class_0::IprAccess             0      0.00%    100.00% # Class of committed instruction
system.cpu.commit.op_class_0::InstPrefetch            0      0.00%    100.00% # Class of committed instruction
system.cpu.commit.op_class_0::total           3524846                       # Class of committed instruction
system.cpu.commit.refs                         653366                       # Number of memory references committed
system.cpu.commit.swp_count                         0                       # Number of s/w prefetches committed
system.cpu.commit.vec_insts                         0                       # Number of committed Vector instructions.
system.cpu.committedInsts                     2027475                       # Number of Instructions Simulated
system.cpu.committedOps                       3524846                       # Number of Ops (including micro ops) Simulated
system.cpu.cpi                               1.329077                       # CPI: Cycles Per Instruction
system.cpu.cpi_total                         1.329077                       # CPI: Total CPI of All Threads
system.cpu.dcache.prefetcher.num_hwpf_issued         8019                       # number of hwpf issued
system.cpu.dcache.prefetcher.pfBufferHit        34121                       # number of redundant prefetches already in prefetch queue
system.cpu.dcache.prefetcher.pfIdentified        49559                       # number of prefetch candidates identified
system.cpu.dcache.prefetcher.pfInCache              0                       # number of redundant prefetches already in cache/mshr dropped
system.cpu.dcache.prefetcher.pfRemovedFull            0                       # number of prefetches dropped due to prefetch queue size
system.cpu.dcache.prefetcher.pfSpanPage          4329                       # number of prefetches that crossed the page
system.cpu.decode.BlockedCycles               1016322                       # Number of cycles decode is blocked
system.cpu.decode.DecodedInsts                4605406                       # Number of instructions handled by decode
system.cpu.decode.IdleCycles                   289400                       # Number of cycles decode is idle
system.cpu.decode.RunCycles                   1118871                       # Number of cycles decode is running
system.cpu.decode.SquashCycles                  23537                       # Number of cycles decode is squashing
system.cpu.decode.UnblockCycles                 86171                       # Number of cycles decode is unblocking
system.cpu.dtb.rdAccesses                      568140                       # TLB accesses on read requests
system.cpu.dtb.rdMisses                          2064                       # TLB misses on read requests
system.cpu.dtb.wrAccesses                      186389                       # TLB accesses on write requests
system.cpu.dtb.wrMisses                           160                       # TLB misses on write requests
system.cpu.fetch.Branches                      481596                       # Number of branches that fetch encountered
system.cpu.fetch.CacheLines                    234328                       # Number of cache lines fetched
system.cpu.fetch.Cycles                       2186773                       # Number of cycles fetch has run and was not squashing or blocked
system.cpu.fetch.IcacheSquashes                  4466                       # Number of outstanding Icache misses that were squashed
system.cpu.fetch.Insts                        2784354                       # Number of instructions fetch has processed
system.cpu.fetch.MiscStallCycles                  124                       # Number of cycles fetch has spent waiting on interrupts, or bad addresses, or out of MSHRs
system.cpu.fetch.PendingQuiesceStallCycles            6                       # Number of stall cycles due to pending quiesce instructions
system.cpu.fetch.PendingTrapStallCycles           683                       # Number of stall cycles due to pending traps
system.cpu.fetch.SquashCycles                   47074                       # Number of cycles fetch has spent squashing
system.cpu.fetch.branchRate                  0.178722                       # Number of branch fetches per cycle
system.cpu.fetch.icacheStallCycles             323178                       # Number of cycles fetch is stalled on an Icache miss
system.cpu.fetch.predictedBranches             245523                       # Number of branches that fetch has predicted taken
system.cpu.fetch.rate                        1.033282                       # Number of inst fetches per cycle
system.cpu.fetch.rateDist::samples            2534301                       # Number of instructions fetched each cycle (Total)
system.cpu.fetch.rateDist::mean              1.924060                       # Number of instructions fetched each cycle (Total)
system.cpu.fetch.rateDist::stdev             1.931680                       # Number of instructions fetched each cycle (Total)
system.cpu.fetch.rateDist::underflows               0      0.00%      0.00% # Number of instructions fetched each cycle (Total)
system.cpu.fetch.rateDist::0                  1214407     47.92%     47.92% # Number of instructions fetched each cycle (Total)
system.cpu.fetch.rateDist::1                    71580      2.82%     50.74% # Number of instructions fetched each cycle (Total)
system.cpu.fetch.rateDist::2                    57337      2.26%     53.01% # Number of instructions fetched each cycle (Total)
system.cpu.fetch.rateDist::3                    74014      2.92%     55.93% # Number of instructions fetched each cycle (Total)
system.cpu.fetch.rateDist::4                  1116963     44.07%    100.00% # Number of instructions fetched each cycle (Total)
system.cpu.fetch.rateDist::overflows                0      0.00%    100.00% # Number of instructions fetched each cycle (Total)
system.cpu.fetch.rateDist::min_value                0                       # Number of instructions fetched each cycle (Total)
system.cpu.fetch.rateDist::max_value                4                       # Number of instructions fetched each cycle (Total)
system.cpu.fetch.rateDist::total              2534301                       # Number of instructions fetched each cycle (Total)
system.cpu.fp_regfile_reads                    117668                       # number of floating regfile reads
system.cpu.fp_regfile_writes                    64524                       # number of floating regfile writes
system.cpu.fuPool.fu_ticks_busy::IntALU(0)    213364800                       # Total ticks fu was busy
system.cpu.fuPool.fu_ticks_busy::IntALU(1)    213364800                       # Total ticks fu was busy
system.cpu.fuPool.fu_ticks_busy::IntALU(2)    213364800                       # Total ticks fu was busy
system.cpu.fuPool.fu_ticks_busy::IntALU(3)    213364800                       # Total ticks fu was busy
system.cpu.fuPool.fu_ticks_busy::IntALU(4)    213364400                       # Total ticks fu was busy
system.cpu.fuPool.fu_ticks_busy::IntALU(5)    213364400                       # Total ticks fu was busy
system.cpu.fuPool.fu_ticks_busy::IntMultDiv(0)      8249600                       # Total ticks fu was busy
system.cpu.fuPool.fu_ticks_busy::IntMultDiv(1)      8249200                       # Total ticks fu was busy
system.cpu.fuPool.fu_ticks_busy::FP_ALU(0)       548800                       # Total ticks fu was busy
system.cpu.fuPool.fu_ticks_busy::FP_ALU(1)       548800                       # Total ticks fu was busy
system.cpu.fuPool.fu_ticks_busy::FP_ALU(2)       548400                       # Total ticks fu was busy
system.cpu.fuPool.fu_ticks_busy::FP_ALU(3)       548400                       # Total ticks fu was busy
system.cpu.fuPool.fu_ticks_busy::FP_MultDiv(0)            0                       # Total ticks fu was busy
system.cpu.fuPool.fu_ticks_busy::FP_MultDiv(1)            0                       # Total ticks fu was busy
system.cpu.fuPool.fu_ticks_busy::SIMD_Unit(0)      4463600                       # Total ticks fu was busy
system.cpu.fuPool.fu_ticks_busy::SIMD_Unit(1)      4406000                       # Total ticks fu was busy
system.cpu.fuPool.fu_ticks_busy::SIMD_Unit(2)      4339200                       # Total ticks fu was busy
system.cpu.fuPool.fu_ticks_busy::SIMD_Unit(3)      4387200                       # Total ticks fu was busy
system.cpu.fuPool.fu_ticks_busy::PredALU(0)            0                       # Total ticks fu was busy
system.cpu.fuPool.fu_ticks_busy::RdWrPort(0)     76872800                       # Total ticks fu was busy
system.cpu.fuPool.fu_ticks_busy::RdWrPort(1)     76847600                       # Total ticks fu was busy
system.cpu.fuPool.fu_ticks_busy::RdWrPort(2)     76881600                       # Total ticks fu was busy
system.cpu.fuPool.fu_ticks_busy::RdWrPort(3)     76897600                       # Total ticks fu was busy
system.cpu.fuPool.fu_ticks_busy::IprPort(0)            0                       # Total ticks fu was busy
system.cpu.fuPool.fu_ticks_busy::total     1623976800                       # Total ticks fu was busy
system.cpu.icache.prefetcher.num_hwpf_issued            0                       # number of hwpf issued
system.cpu.icache.prefetcher.pfBufferHit            0                       # number of redundant prefetches already in prefetch queue
system.cpu.icache.prefetcher.pfIdentified            0                       # number of prefetch candidates identified
system.cpu.icache.prefetcher.pfInCache              0                       # number of redundant prefetches already in cache/mshr dropped
system.cpu.icache.prefetcher.pfRemovedFull            0                       # number of prefetches dropped due to prefetch queue size
system.cpu.icache.prefetcher.pfSpanPage             0                       # number of prefetches that crossed the page
system.cpu.idleCycles                          160370                       # Total number of cycles that the CPU has spent unscheduled due to idling
system.cpu.iew.branchMispredicts                27803                       # Number of branch mispredicts detected at execute
system.cpu.iew.exec_branches                   370113                       # Number of branches executed
system.cpu.iew.exec_nop                             0                       # number of nop insts executed
system.cpu.iew.exec_rate                     1.503959                       # Inst execution rate
system.cpu.iew.exec_refs                       756183                       # number of memory reference insts executed
system.cpu.iew.exec_stores                     186379                       # Number of stores executed
system.cpu.iew.exec_swp                             0                       # number of swp insts executed
system.cpu.iew.iewBlockCycles                  682173                       # Number of cycles IEW is blocking
system.cpu.iew.iewDispLoadInsts                599626                       # Number of dispatched load instructions
system.cpu.iew.iewDispNonSpecInsts                929                       # Number of dispatched non-speculative instructions
system.cpu.iew.iewDispSquashedInsts               607                       # Number of squashed instructions skipped by dispatch
system.cpu.iew.iewDispStoreInsts               196152                       # Number of dispatched store instructions
system.cpu.iew.iewDispatchedInsts             4398041                       # Number of instructions dispatched to IQ
system.cpu.iew.iewExecLoadInsts                569804                       # Number of load instructions executed
system.cpu.iew.iewExecSquashedInsts             33314                       # Number of squashed instructions skipped in execute
system.cpu.iew.iewExecutedInsts               4052674                       # Number of executed instructions
system.cpu.iew.iewIQFullEvents                   3310                       # Number of times the IQ has become full, causing a stall
system.cpu.iew.iewIdleCycles                        0                       # Number of cycles IEW is idle
system.cpu.iew.iewLSQFullEvents                  9779                       # Number of times the LSQ has become full, causing a stall
system.cpu.iew.iewSquashCycles                  23537                       # Number of cycles IEW is squashing
system.cpu.iew.iewUnblockCycles                 15916                       # Number of cycles IEW is unblocking
system.cpu.iew.lsq.thread0.blockedLoads             0                       # Number of blocked loads due to partial load-store forwarding
system.cpu.iew.lsq.thread0.cacheBlocked           584                       # Number of times an access to memory failed due to the cache being blocked
system.cpu.iew.lsq.thread0.forwLoads            39338                       # Number of loads that had data forwarded from stores
system.cpu.iew.lsq.thread0.ignoredResponses          250                       # Number of memory responses ignored because the instruction is squashed
system.cpu.iew.lsq.thread0.invAddrLoads             0                       # Number of loads ignored due to an invalid address
system.cpu.iew.lsq.thread0.invAddrSwpfs             0                       # Number of software prefetches ignored due to an invalid address
system.cpu.iew.lsq.thread0.memOrderViolation           70                       # Number of memory ordering violations
system.cpu.iew.lsq.thread0.rescheduledLoads            0                       # Number of loads that were rescheduled
system.cpu.iew.lsq.thread0.squashedLoads       114249                       # Number of loads squashed
system.cpu.iew.lsq.thread0.squashedStores        28160                       # Number of stores squashed
system.cpu.iew.memOrderViolationEvents             70                       # Number of memory order violations
system.cpu.iew.predictedNotTakenIncorrect        19816                       # Number of branches that were predicted not taken incorrectly
system.cpu.iew.predictedTakenIncorrect           7987                       # Number of branches that were predicted taken incorrectly
system.cpu.iew.wb_consumers                   5687122                       # num instructions consuming a value
system.cpu.iew.wb_count                       4031354                       # cumulative count of insts written-back
system.cpu.iew.wb_fanout                     0.567215                       # average fanout of values written-back
system.cpu.iew.wb_producers                   3225821                       # num instructions producing a value
system.cpu.iew.wb_rate                       1.496047                       # insts written-back per cycle
system.cpu.iew.wb_sent                        4038216                       # cumulative count of insts sent to commit
system.cpu.int_regfile_reads                  6275612                       # number of integer regfile reads
system.cpu.int_regfile_writes                 3484609                       # number of integer regfile writes
system.cpu.ipc                               0.752402                       # IPC: Instructions Per Cycle
system.cpu.ipc_total                         0.752402                       # IPC: Total IPC of All Threads
system.cpu.iq.FU_type_0::No_OpClass             26046      0.64%      0.64% # Type of FU issued
system.cpu.iq.FU_type_0::IntAlu               3200471     78.33%     78.97% # Type of FU issued
system.cpu.iq.FU_type_0::IntMult                   51      0.00%     78.97% # Type of FU issued
system.cpu.iq.FU_type_0::IntDiv                 41196      1.01%     79.97% # Type of FU issued
system.cpu.iq.FU_type_0::FloatAdd                4228      0.10%     80.08% # Type of FU issued
system.cpu.iq.FU_type_0::FloatCmp                   0      0.00%     80.08% # Type of FU issued
system.cpu.iq.FU_type_0::FloatCvt                1258      0.03%     80.11% # Type of FU issued
system.cpu.iq.FU_type_0::FloatMult                  0      0.00%     80.11% # Type of FU issued
system.cpu.iq.FU_type_0::FloatMultAcc               0      0.00%     80.11% # Type of FU issued
system.cpu.iq.FU_type_0::FloatDiv                   0      0.00%     80.11% # Type of FU issued
system.cpu.iq.FU_type_0::FloatMisc                  0      0.00%     80.11% # Type of FU issued
system.cpu.iq.FU_type_0::FloatSqrt                  0      0.00%     80.11% # Type of FU issued
system.cpu.iq.FU_type_0::SimdAdd                 6784      0.17%     80.28% # Type of FU issued
system.cpu.iq.FU_type_0::SimdAddAcc                 0      0.00%     80.28% # Type of FU issued
system.cpu.iq.FU_type_0::SimdAlu                14470      0.35%     80.63% # Type of FU issued
system.cpu.iq.FU_type_0::SimdCmp                    0      0.00%     80.63% # Type of FU issued
system.cpu.iq.FU_type_0::SimdCvt                13660      0.33%     80.96% # Type of FU issued
system.cpu.iq.FU_type_0::SimdMisc                7067      0.17%     81.14% # Type of FU issued
system.cpu.iq.FU_type_0::SimdMult                   0      0.00%     81.14% # Type of FU issued
system.cpu.iq.FU_type_0::SimdMultAcc                0      0.00%     81.14% # Type of FU issued
system.cpu.iq.FU_type_0::SimdShift               2009      0.05%     81.19% # Type of FU issued
system.cpu.iq.FU_type_0::SimdShiftAcc               0      0.00%     81.19% # Type of FU issued
system.cpu.iq.FU_type_0::SimdDiv                    0      0.00%     81.19% # Type of FU issued
system.cpu.iq.FU_type_0::SimdSqrt                   0      0.00%     81.19% # Type of FU issued
system.cpu.iq.FU_type_0::SimdFloatAdd               0      0.00%     81.19% # Type of FU issued
system.cpu.iq.FU_type_0::SimdFloatAlu               0      0.00%     81.19% # Type of FU issued
system.cpu.iq.FU_type_0::SimdFloatCmp               0      0.00%     81.19% # Type of FU issued
system.cpu.iq.FU_type_0::SimdFloatCvt               0      0.00%     81.19% # Type of FU issued
system.cpu.iq.FU_type_0::SimdFloatDiv               0      0.00%     81.19% # Type of FU issued
system.cpu.iq.FU_type_0::SimdFloatMisc              0      0.00%     81.19% # Type of FU issued
system.cpu.iq.FU_type_0::SimdFloatMult              0      0.00%     81.19% # Type of FU issued
system.cpu.iq.FU_type_0::SimdFloatMultAcc            0      0.00%     81.19% # Type of FU issued
system.cpu.iq.FU_type_0::SimdFloatSqrt              0      0.00%     81.19% # Type of FU issued
system.cpu.iq.FU_type_0::SimdReduceAdd              0      0.00%     81.19% # Type of FU issued
system.cpu.iq.FU_type_0::SimdReduceAlu              0      0.00%     81.19% # Type of FU issued
system.cpu.iq.FU_type_0::SimdReduceCmp              0      0.00%     81.19% # Type of FU issued
system.cpu.iq.FU_type_0::SimdFloatReduceAdd            0      0.00%     81.19% # Type of FU issued
system.cpu.iq.FU_type_0::SimdFloatReduceCmp            0      0.00%     81.19% # Type of FU issued
system.cpu.iq.FU_type_0::SimdAes                    0      0.00%     81.19% # Type of FU issued
system.cpu.iq.FU_type_0::SimdAesMix                 0      0.00%     81.19% # Type of FU issued
system.cpu.iq.FU_type_0::SimdSha1Hash               0      0.00%     81.19% # Type of FU issued
system.cpu.iq.FU_type_0::SimdSha1Hash2              0      0.00%     81.19% # Type of FU issued
system.cpu.iq.FU_type_0::SimdSha256Hash             0      0.00%     81.19% # Type of FU issued
system.cpu.iq.FU_type_0::SimdSha256Hash2            0      0.00%     81.19% # Type of FU issued
system.cpu.iq.FU_type_0::SimdShaSigma2              0      0.00%     81.19% # Type of FU issued
system.cpu.iq.FU_type_0::SimdShaSigma3              0      0.00%     81.19% # Type of FU issued
system.cpu.iq.FU_type_0::SimdPredAlu                0      0.00%     81.19% # Type of FU issued
system.cpu.iq.FU_type_0::MemRead               555409     13.59%     94.78% # Type of FU issued
system.cpu.iq.FU_type_0::MemWrite              175593      4.30%     99.08% # Type of FU issued
system.cpu.iq.FU_type_0::FloatMemRead           24458      0.60%     99.67% # Type of FU issued
system.cpu.iq.FU_type_0::FloatMemWrite          13291      0.33%    100.00% # Type of FU issued
system.cpu.iq.FU_type_0::IprAccess                  0      0.00%    100.00% # Type of FU issued
system.cpu.iq.FU_type_0::InstPrefetch               0      0.00%    100.00% # Type of FU issued
system.cpu.iq.FU_type_0::total                4085991                       # Type of FU issued
system.cpu.iq.fp_alu_accesses                   88213                       # Number of floating point alu accesses
system.cpu.iq.fp_inst_queue_reads              177685                       # Number of floating instruction queue reads
system.cpu.iq.fp_inst_queue_wakeup_accesses        85165                       # Number of floating instruction queue wakeup accesses
system.cpu.iq.fp_inst_queue_writes             126760                       # Number of floating instruction queue writes
system.cpu.iq.fu_busy_cnt                           0                       # FU busy when requested
system.cpu.iq.fu_busy_rate                          0                       # FU busy rate (busy events/executed inst)
system.cpu.iq.fu_full::No_OpClass                   0                       # attempts to use FU when none available
system.cpu.iq.fu_full::IntAlu                       0                       # attempts to use FU when none available
system.cpu.iq.fu_full::IntMult                      0                       # attempts to use FU when none available
system.cpu.iq.fu_full::IntDiv                       0                       # attempts to use FU when none available
system.cpu.iq.fu_full::FloatAdd                     0                       # attempts to use FU when none available
system.cpu.iq.fu_full::FloatCmp                     0                       # attempts to use FU when none available
system.cpu.iq.fu_full::FloatCvt                     0                       # attempts to use FU when none available
system.cpu.iq.fu_full::FloatMult                    0                       # attempts to use FU when none available
system.cpu.iq.fu_full::FloatMultAcc                 0                       # attempts to use FU when none available
system.cpu.iq.fu_full::FloatDiv                     0                       # attempts to use FU when none available
system.cpu.iq.fu_full::FloatMisc                    0                       # attempts to use FU when none available
system.cpu.iq.fu_full::FloatSqrt                    0                       # attempts to use FU when none available
system.cpu.iq.fu_full::SimdAdd                      0                       # attempts to use FU when none available
system.cpu.iq.fu_full::SimdAddAcc                   0                       # attempts to use FU when none available
system.cpu.iq.fu_full::SimdAlu                      0                       # attempts to use FU when none available
system.cpu.iq.fu_full::SimdCmp                      0                       # attempts to use FU when none available
system.cpu.iq.fu_full::SimdCvt                      0                       # attempts to use FU when none available
system.cpu.iq.fu_full::SimdMisc                     0                       # attempts to use FU when none available
system.cpu.iq.fu_full::SimdMult                     0                       # attempts to use FU when none available
system.cpu.iq.fu_full::SimdMultAcc                  0                       # attempts to use FU when none available
system.cpu.iq.fu_full::SimdShift                    0                       # attempts to use FU when none available
system.cpu.iq.fu_full::SimdShiftAcc                 0                       # attempts to use FU when none available
system.cpu.iq.fu_full::SimdDiv                      0                       # attempts to use FU when none available
system.cpu.iq.fu_full::SimdSqrt                     0                       # attempts to use FU when none available
system.cpu.iq.fu_full::SimdFloatAdd                 0                       # attempts to use FU when none available
system.cpu.iq.fu_full::SimdFloatAlu                 0                       # attempts to use FU when none available
system.cpu.iq.fu_full::SimdFloatCmp                 0                       # attempts to use FU when none available
system.cpu.iq.fu_full::SimdFloatCvt                 0                       # attempts to use FU when none available
system.cpu.iq.fu_full::SimdFloatDiv                 0                       # attempts to use FU when none available
system.cpu.iq.fu_full::SimdFloatMisc                0                       # attempts to use FU when none available
system.cpu.iq.fu_full::SimdFloatMult                0                       # attempts to use FU when none available
system.cpu.iq.fu_full::SimdFloatMultAcc             0                       # attempts to use FU when none available
system.cpu.iq.fu_full::SimdFloatSqrt                0                       # attempts to use FU when none available
system.cpu.iq.fu_full::SimdReduceAdd                0                       # attempts to use FU when none available
system.cpu.iq.fu_full::SimdReduceAlu                0                       # attempts to use FU when none available
system.cpu.iq.fu_full::SimdReduceCmp                0                       # attempts to use FU when none available
system.cpu.iq.fu_full::SimdFloatReduceAdd            0                       # attempts to use FU when none available
system.cpu.iq.fu_full::SimdFloatReduceCmp            0                       # attempts to use FU when none available
system.cpu.iq.fu_full::SimdAes                      0                       # attempts to use FU when none available
system.cpu.iq.fu_full::SimdAesMix                   0                       # attempts to use FU when none available
system.cpu.iq.fu_full::SimdSha1Hash                 0                       # attempts to use FU when none available
system.cpu.iq.fu_full::SimdSha1Hash2                0                       # attempts to use FU when none available
system.cpu.iq.fu_full::SimdSha256Hash               0                       # attempts to use FU when none available
system.cpu.iq.fu_full::SimdSha256Hash2              0                       # attempts to use FU when none available
system.cpu.iq.fu_full::SimdShaSigma2                0                       # attempts to use FU when none available
system.cpu.iq.fu_full::SimdShaSigma3                0                       # attempts to use FU when none available
system.cpu.iq.fu_full::SimdPredAlu                  0                       # attempts to use FU when none available
system.cpu.iq.fu_full::MemRead                      0                       # attempts to use FU when none available
system.cpu.iq.fu_full::MemWrite                     0                       # attempts to use FU when none available
system.cpu.iq.fu_full::FloatMemRead                 0                       # attempts to use FU when none available
system.cpu.iq.fu_full::FloatMemWrite                0                       # attempts to use FU when none available
system.cpu.iq.fu_full::IprAccess                    0                       # attempts to use FU when none available
system.cpu.iq.fu_full::InstPrefetch                 0                       # attempts to use FU when none available
system.cpu.iq.int_alu_accesses                3971732                       # Number of integer alu accesses
system.cpu.iq.int_inst_queue_reads           10546826                       # Number of integer instruction queue reads
system.cpu.iq.int_inst_queue_wakeup_accesses      3946189                       # Number of integer instruction queue wakeup accesses
system.cpu.iq.int_inst_queue_writes           5144532                       # Number of integer instruction queue writes
system.cpu.iq.iqInstsAdded                    4396938                       # Number of instructions added to the IQ (excludes non-spec)
system.cpu.iq.iqInstsIssued                   4085991                       # Number of instructions issued
system.cpu.iq.iqNonSpecInstsAdded                1103                       # Number of non-speculative instructions added to the IQ
system.cpu.iq.iqSquashedInstsExamined          873184                       # Number of squashed instructions iterated over during squash; mainly for profiling
system.cpu.iq.iqSquashedInstsIssued             18231                       # Number of squashed instructions issued
system.cpu.iq.iqSquashedNonSpecRemoved            361                       # Number of squashed non-spec instructions that were removed
system.cpu.iq.iqSquashedOperandsExamined      1286991                       # Number of squashed operands that are examined and possibly removed from graph
system.cpu.iq.issued_per_cycle::samples       2534301                       # Number of insts issued each cycle
system.cpu.iq.issued_per_cycle::mean         1.612275                       # Number of insts issued each cycle
system.cpu.iq.issued_per_cycle::stdev        1.673036                       # Number of insts issued each cycle
system.cpu.iq.issued_per_cycle::underflows            0      0.00%      0.00% # Number of insts issued each cycle
system.cpu.iq.issued_per_cycle::0             1159255     45.74%     45.74% # Number of insts issued each cycle
system.cpu.iq.issued_per_cycle::1              165999      6.55%     52.29% # Number of insts issued each cycle
system.cpu.iq.issued_per_cycle::2              291999     11.52%     63.81% # Number of insts issued each cycle
system.cpu.iq.issued_per_cycle::3              332198     13.11%     76.92% # Number of insts issued each cycle
system.cpu.iq.issued_per_cycle::4              584850     23.08%    100.00% # Number of insts issued each cycle
system.cpu.iq.issued_per_cycle::overflows            0      0.00%    100.00% # Number of insts issued each cycle
system.cpu.iq.issued_per_cycle::min_value            0                       # Number of insts issued each cycle
system.cpu.iq.issued_per_cycle::max_value            4                       # Number of insts issued each cycle
system.cpu.iq.issued_per_cycle::total         2534301                       # Number of insts issued each cycle
system.cpu.iq.rate                           1.516323                       # Inst issue rate
system.cpu.iq.vec_alu_accesses                      0                       # Number of vector alu accesses
system.cpu.iq.vec_inst_queue_reads                  0                       # Number of vector instruction queue reads
system.cpu.iq.vec_inst_queue_wakeup_accesses            0                       # Number of vector instruction queue wakeup accesses
system.cpu.iq.vec_inst_queue_writes                 0                       # Number of vector instruction queue writes
system.cpu.itb.rdAccesses                           0                       # TLB accesses on read requests
system.cpu.itb.rdMisses                             0                       # TLB misses on read requests
system.cpu.itb.wrAccesses                      234443                       # TLB accesses on write requests
system.cpu.itb.wrMisses                           364                       # TLB misses on write requests
system.cpu.memDep0.conflictingLoads             10244                       # Number of conflicting loads.
system.cpu.memDep0.conflictingStores             3299                       # Number of conflicting stores.
system.cpu.memDep0.insertedLoads               599626                       # Number of loads inserted to the mem dependence unit.
system.cpu.memDep0.insertedStores              196152                       # Number of stores inserted to the mem dependence unit.
system.cpu.misc_regfile_reads                 1531609                       # number of misc regfile reads
system.cpu.misc_regfile_writes                    684                       # number of misc regfile writes
system.cpu.numCycles                          2694671                       # number of cpu cycles simulated
system.cpu.numWorkItemsCompleted                    0                       # number of work items this cpu completed
system.cpu.numWorkItemsStarted                      0                       # number of work items this cpu started
system.cpu.process.numSyscalls                     57                       # Number of system calls
system.cpu.rename.BlockCycles                  830121                       # Number of cycles rename is blocking
system.cpu.rename.CommittedMaps               4830009                       # Number of HB maps that are committed
system.cpu.rename.FullRegisterEvents               35                       # Number of times there has been no free registers
system.cpu.rename.IQFullEvents                  43172                       # Number of times rename has blocked due to IQ full
system.cpu.rename.IdleCycles                   337924                       # Number of cycles rename is idle
system.cpu.rename.LQFullEvents                  18576                       # Number of times rename has blocked due to LQ full
system.cpu.rename.ROBFullEvents                  5631                       # Number of times rename has blocked due to ROB full
system.cpu.rename.RenameLookups              11849645                       # Number of register rename lookups that rename has made
system.cpu.rename.RenamedInsts                4533673                       # Number of instructions processed by rename
system.cpu.rename.RenamedOperands             6200556                       # Number of destination operands rename has renamed
system.cpu.rename.RunCycles                   1148460                       # Number of cycles rename is running
system.cpu.rename.SQFullEvents                  74713                       # Number of times rename has blocked due to SQ full
system.cpu.rename.SquashCycles                  23537                       # Number of cycles rename is squashing
system.cpu.rename.UnblockCycles                173442                       # Number of cycles rename is unblocking
system.cpu.rename.UndoneMaps                  1370524                       # Number of HB maps that are undone due to squashing
system.cpu.rename.fp_rename_lookups            150990                       # Number of floating rename lookups
system.cpu.rename.int_rename_lookups          7189721                       # Number of integer rename lookups
system.cpu.rename.serializeStallCycles          20817                       # count of cycles rename stalled for serializing inst
system.cpu.rename.serializingInsts                873                       # count of serializing insts renamed
system.cpu.rename.skidInsts                    200527                       # count of insts added to the skid buffer
system.cpu.rename.tempSerializingInsts            920                       # count of temporary serializing insts renamed
system.cpu.rob.rob_reads                      6106499                       # The number of ROB reads
system.cpu.rob.rob_writes                     9035150                       # The number of ROB writes
system.cpu.timesIdled                            1564                       # Number of times that the entire CPU went into an idle state and unscheduled itself
system.l2bus.snoop_filter.hit_multi_requests           10                       # Number of requests hitting in the snoop filter with multiple (>1) holders of the requested data.
system.l2bus.snoop_filter.hit_multi_snoops            0                       # Number of snoops hitting in the snoop filter with multiple (>1) holders of the requested data.
system.l2bus.snoop_filter.hit_single_requests        18333                       # Number of requests hitting in the snoop filter with a single holder of the requested data.
system.l2bus.snoop_filter.hit_single_snoops          421                       # Number of snoops hitting in the snoop filter with a single holder of the requested data.
system.l2bus.snoop_filter.tot_requests          37944                       # Total number of requests made to the snoop filter.
system.l2bus.snoop_filter.tot_snoops              421                       # Total number of snoops made to the snoop filter.
system.l2cache.prefetcher.num_hwpf_issued          733                       # number of hwpf issued
system.l2cache.prefetcher.pfBufferHit               0                       # number of redundant prefetches already in prefetch queue
system.l2cache.prefetcher.pfIdentified            734                       # number of prefetch candidates identified
system.l2cache.prefetcher.pfInCache                 0                       # number of redundant prefetches already in cache/mshr dropped
system.l2cache.prefetcher.pfRemovedFull             0                       # number of prefetches dropped due to prefetch queue size
system.l2cache.prefetcher.pfSpanPage              142                       # number of prefetches that crossed the page
system.membus.snoop_filter.hit_multi_requests            0                       # Number of requests hitting in the snoop filter with multiple (>1) holders of the requested data.
system.membus.snoop_filter.hit_multi_snoops            0                       # Number of snoops hitting in the snoop filter with multiple (>1) holders of the requested data.
system.membus.snoop_filter.hit_single_requests         9402                       # Number of requests hitting in the snoop filter with a single holder of the requested data.
system.membus.snoop_filter.hit_single_snoops            0                       # Number of snoops hitting in the snoop filter with a single holder of the requested data.
system.membus.snoop_filter.tot_requests         22918                       # Total number of requests made to the snoop filter.
system.membus.snoop_filter.tot_snoops               0                       # Total number of snoops made to the snoop filter.
system.membus.pwrStateResidencyTicks::UNDEFINED   1077868000                       # Cumulative time (in ticks) in various power states
system.membus.trans_dist::ReadResp              12182                       # Transaction distribution
system.membus.trans_dist::WritebackDirty         1355                       # Transaction distribution
system.membus.trans_dist::CleanEvict             8047                       # Transaction distribution
system.membus.trans_dist::ReadExReq              1334                       # Transaction distribution
system.membus.trans_dist::ReadExResp             1334                       # Transaction distribution
system.membus.trans_dist::ReadSharedReq         12182                       # Transaction distribution
system.membus.pkt_count_system.l2cache.mem_side::system.mem_ctrl.port        36434                       # Packet count per connected master and slave (bytes)
system.membus.pkt_count_system.l2cache.mem_side::total        36434                       # Packet count per connected master and slave (bytes)
system.membus.pkt_count::total                  36434                       # Packet count per connected master and slave (bytes)
system.membus.pkt_size_system.l2cache.mem_side::system.mem_ctrl.port       951744                       # Cumulative packet size per connected master and slave (bytes)
system.membus.pkt_size_system.l2cache.mem_side::total       951744                       # Cumulative packet size per connected master and slave (bytes)
system.membus.pkt_size::total                  951744                       # Cumulative packet size per connected master and slave (bytes)
system.membus.snoops                                0                       # Total snoops (count)
system.membus.snoopTraffic                          0                       # Total snoop traffic (bytes)
system.membus.snoop_fanout::samples             13516                       # Request fanout histogram
system.membus.snoop_fanout::mean                    0                       # Request fanout histogram
system.membus.snoop_fanout::stdev                   0                       # Request fanout histogram
system.membus.snoop_fanout::underflows              0      0.00%      0.00% # Request fanout histogram
system.membus.snoop_fanout::0                   13516    100.00%    100.00% # Request fanout histogram
system.membus.snoop_fanout::1                       0      0.00%    100.00% # Request fanout histogram
system.membus.snoop_fanout::overflows               0      0.00%    100.00% # Request fanout histogram
system.membus.snoop_fanout::min_value               0                       # Request fanout histogram
system.membus.snoop_fanout::max_value               0                       # Request fanout histogram
system.membus.snoop_fanout::total               13516                       # Request fanout histogram
system.membus.reqLayer2.occupancy            11362183                       # Layer occupancy (ticks)
system.membus.reqLayer2.utilization               1.1                       # Layer utilization (%)
system.membus.respLayer0.occupancy           29343217                       # Layer occupancy (ticks)
system.membus.respLayer0.utilization              2.7                       # Layer utilization (%)
system.l2bus.pwrStateResidencyTicks::UNDEFINED   1077868000                       # Cumulative time (in ticks) in various power states
system.l2bus.trans_dist::ReadResp               17544                       # Transaction distribution
system.l2bus.trans_dist::WritebackDirty          4087                       # Transaction distribution
system.l2bus.trans_dist::CleanEvict             23724                       # Transaction distribution
system.l2bus.trans_dist::HardPFReq               1020                       # Transaction distribution
system.l2bus.trans_dist::ReadExReq               2068                       # Transaction distribution
system.l2bus.trans_dist::ReadExResp              2068                       # Transaction distribution
system.l2bus.trans_dist::ReadSharedReq          17544                       # Transaction distribution
system.l2bus.pkt_count_system.cpu.icache.mem_side::system.l2cache.cpu_side         8035                       # Packet count per connected master and slave (bytes)
system.l2bus.pkt_count_system.cpu.dcache.mem_side::system.l2cache.cpu_side        49520                       # Packet count per connected master and slave (bytes)
system.l2bus.pkt_count::total                   57555                       # Packet count per connected master and slave (bytes)
system.l2bus.pkt_size_system.cpu.icache.mem_side::system.l2cache.cpu_side       176832                       # Cumulative packet size per connected master and slave (bytes)
system.l2bus.pkt_size_system.cpu.dcache.mem_side::system.l2cache.cpu_side      1253120                       # Cumulative packet size per connected master and slave (bytes)
system.l2bus.pkt_size::total                  1429952                       # Cumulative packet size per connected master and slave (bytes)
system.l2bus.snoops                             10500                       # Total snoops (count)
system.l2bus.snoopTraffic                       86784                       # Total snoop traffic (bytes)
system.l2bus.snoop_fanout::samples              30111                       # Request fanout histogram
system.l2bus.snoop_fanout::mean              0.014347                       # Request fanout histogram
system.l2bus.snoop_fanout::stdev             0.118918                       # Request fanout histogram
system.l2bus.snoop_fanout::underflows               0      0.00%      0.00% # Request fanout histogram
system.l2bus.snoop_fanout::0                    29679     98.57%     98.57% # Request fanout histogram
system.l2bus.snoop_fanout::1                      432      1.43%    100.00% # Request fanout histogram
system.l2bus.snoop_fanout::2                        0      0.00%    100.00% # Request fanout histogram
system.l2bus.snoop_fanout::overflows                0      0.00%    100.00% # Request fanout histogram
system.l2bus.snoop_fanout::min_value                0                       # Request fanout histogram
system.l2bus.snoop_fanout::max_value                1                       # Request fanout histogram
system.l2bus.snoop_fanout::total                30111                       # Request fanout histogram
system.l2bus.respLayer1.occupancy            20218797                       # Layer occupancy (ticks)
system.l2bus.respLayer1.utilization               1.9                       # Layer utilization (%)
system.l2bus.reqLayer0.occupancy             18783898                       # Layer occupancy (ticks)
system.l2bus.reqLayer0.utilization                1.7                       # Layer utilization (%)
system.l2bus.respLayer0.occupancy             3317199                       # Layer occupancy (ticks)
system.l2bus.respLayer0.utilization               0.3                       # Layer utilization (%)
system.clk_domain.clock                           400                       # Clock period in ticks
system.clk_domain.voltage_domain.voltage            1                       # Voltage in Volts
system.cpu.pwrStateResidencyTicks::ON      1077868000                       # Cumulative time (in ticks) in various power states
system.cpu.icache.pwrStateResidencyTicks::UNDEFINED   1077868000                       # Cumulative time (in ticks) in various power states
system.cpu.icache.demand_hits::.cpu.inst       230895                       # number of demand (read+write) hits
system.cpu.icache.demand_hits::total           230895                       # number of demand (read+write) hits
system.cpu.icache.overall_hits::.cpu.inst       230895                       # number of overall hits
system.cpu.icache.overall_hits::total          230895                       # number of overall hits
system.cpu.icache.demand_misses::.cpu.inst         3432                       # number of demand (read+write) misses
system.cpu.icache.demand_misses::total           3432                       # number of demand (read+write) misses
system.cpu.icache.overall_misses::.cpu.inst         3432                       # number of overall misses
system.cpu.icache.overall_misses::total          3432                       # number of overall misses
system.cpu.icache.demand_miss_latency::.cpu.inst    173847200                       # number of demand (read+write) miss cycles
system.cpu.icache.demand_miss_latency::total    173847200                       # number of demand (read+write) miss cycles
system.cpu.icache.overall_miss_latency::.cpu.inst    173847200                       # number of overall miss cycles
system.cpu.icache.overall_miss_latency::total    173847200                       # number of overall miss cycles
system.cpu.icache.demand_accesses::.cpu.inst       234327                       # number of demand (read+write) accesses
system.cpu.icache.demand_accesses::total       234327                       # number of demand (read+write) accesses
system.cpu.icache.overall_accesses::.cpu.inst       234327                       # number of overall (read+write) accesses
system.cpu.icache.overall_accesses::total       234327                       # number of overall (read+write) accesses
system.cpu.icache.demand_miss_rate::.cpu.inst     0.014646                       # miss rate for demand accesses
system.cpu.icache.demand_miss_rate::total     0.014646                       # miss rate for demand accesses
system.cpu.icache.overall_miss_rate::.cpu.inst     0.014646                       # miss rate for overall accesses
system.cpu.icache.overall_miss_rate::total     0.014646                       # miss rate for overall accesses
system.cpu.icache.demand_avg_miss_latency::.cpu.inst 50654.778555                       # average overall miss latency
system.cpu.icache.demand_avg_miss_latency::total 50654.778555                       # average overall miss latency
system.cpu.icache.overall_avg_miss_latency::.cpu.inst 50654.778555                       # average overall miss latency
system.cpu.icache.overall_avg_miss_latency::total 50654.778555                       # average overall miss latency
system.cpu.icache.blocked_cycles::no_mshrs           39                       # number of cycles access was blocked
system.cpu.icache.blocked_cycles::no_targets            0                       # number of cycles access was blocked
system.cpu.icache.blocked::no_mshrs                 2                       # number of cycles access was blocked
system.cpu.icache.blocked::no_targets               0                       # number of cycles access was blocked
system.cpu.icache.avg_blocked_cycles::no_mshrs    19.500000                       # average number of cycles each access was blocked
system.cpu.icache.avg_blocked_cycles::no_targets          nan                       # average number of cycles each access was blocked
system.cpu.icache.demand_mshr_hits::.cpu.inst          668                       # number of demand (read+write) MSHR hits
system.cpu.icache.demand_mshr_hits::total          668                       # number of demand (read+write) MSHR hits
system.cpu.icache.overall_mshr_hits::.cpu.inst          668                       # number of overall MSHR hits
system.cpu.icache.overall_mshr_hits::total          668                       # number of overall MSHR hits
system.cpu.icache.demand_mshr_misses::.cpu.inst         2764                       # number of demand (read+write) MSHR misses
system.cpu.icache.demand_mshr_misses::total         2764                       # number of demand (read+write) MSHR misses
system.cpu.icache.overall_mshr_misses::.cpu.inst         2764                       # number of overall MSHR misses
system.cpu.icache.overall_mshr_misses::total         2764                       # number of overall MSHR misses
system.cpu.icache.demand_mshr_miss_latency::.cpu.inst    140056800                       # number of demand (read+write) MSHR miss cycles
system.cpu.icache.demand_mshr_miss_latency::total    140056800                       # number of demand (read+write) MSHR miss cycles
system.cpu.icache.overall_mshr_miss_latency::.cpu.inst    140056800                       # number of overall MSHR miss cycles
system.cpu.icache.overall_mshr_miss_latency::total    140056800                       # number of overall MSHR miss cycles
system.cpu.icache.demand_mshr_miss_rate::.cpu.inst     0.011795                       # mshr miss rate for demand accesses
system.cpu.icache.demand_mshr_miss_rate::total     0.011795                       # mshr miss rate for demand accesses
system.cpu.icache.overall_mshr_miss_rate::.cpu.inst     0.011795                       # mshr miss rate for overall accesses
system.cpu.icache.overall_mshr_miss_rate::total     0.011795                       # mshr miss rate for overall accesses
system.cpu.icache.demand_avg_mshr_miss_latency::.cpu.inst 50671.780029                       # average overall mshr miss latency
system.cpu.icache.demand_avg_mshr_miss_latency::total 50671.780029                       # average overall mshr miss latency
system.cpu.icache.overall_avg_mshr_miss_latency::.cpu.inst 50671.780029                       # average overall mshr miss latency
system.cpu.icache.overall_avg_mshr_miss_latency::total 50671.780029                       # average overall mshr miss latency
system.cpu.icache.replacements                   2508                       # number of replacements
system.cpu.icache.ReadReq_hits::.cpu.inst       230895                       # number of ReadReq hits
system.cpu.icache.ReadReq_hits::total          230895                       # number of ReadReq hits
system.cpu.icache.ReadReq_misses::.cpu.inst         3432                       # number of ReadReq misses
system.cpu.icache.ReadReq_misses::total          3432                       # number of ReadReq misses
system.cpu.icache.ReadReq_miss_latency::.cpu.inst    173847200                       # number of ReadReq miss cycles
system.cpu.icache.ReadReq_miss_latency::total    173847200                       # number of ReadReq miss cycles
system.cpu.icache.ReadReq_accesses::.cpu.inst       234327                       # number of ReadReq accesses(hits+misses)
system.cpu.icache.ReadReq_accesses::total       234327                       # number of ReadReq accesses(hits+misses)
system.cpu.icache.ReadReq_miss_rate::.cpu.inst     0.014646                       # miss rate for ReadReq accesses
system.cpu.icache.ReadReq_miss_rate::total     0.014646                       # miss rate for ReadReq accesses
system.cpu.icache.ReadReq_avg_miss_latency::.cpu.inst 50654.778555                       # average ReadReq miss latency
system.cpu.icache.ReadReq_avg_miss_latency::total 50654.778555                       # average ReadReq miss latency
system.cpu.icache.ReadReq_mshr_hits::.cpu.inst          668                       # number of ReadReq MSHR hits
system.cpu.icache.ReadReq_mshr_hits::total          668                       # number of ReadReq MSHR hits
system.cpu.icache.ReadReq_mshr_misses::.cpu.inst         2764                       # number of ReadReq MSHR misses
system.cpu.icache.ReadReq_mshr_misses::total         2764                       # number of ReadReq MSHR misses
system.cpu.icache.ReadReq_mshr_miss_latency::.cpu.inst    140056800                       # number of ReadReq MSHR miss cycles
system.cpu.icache.ReadReq_mshr_miss_latency::total    140056800                       # number of ReadReq MSHR miss cycles
system.cpu.icache.ReadReq_mshr_miss_rate::.cpu.inst     0.011795                       # mshr miss rate for ReadReq accesses
system.cpu.icache.ReadReq_mshr_miss_rate::total     0.011795                       # mshr miss rate for ReadReq accesses
system.cpu.icache.ReadReq_avg_mshr_miss_latency::.cpu.inst 50671.780029                       # average ReadReq mshr miss latency
system.cpu.icache.ReadReq_avg_mshr_miss_latency::total 50671.780029                       # average ReadReq mshr miss latency
system.cpu.icache.prefetcher.pwrStateResidencyTicks::UNDEFINED   1077868000                       # Cumulative time (in ticks) in various power states
system.cpu.icache.tags.pwrStateResidencyTicks::UNDEFINED   1077868000                       # Cumulative time (in ticks) in various power states
system.cpu.icache.tags.tagsinuse           253.429842                       # Cycle average of tags in use
system.cpu.icache.tags.total_refs              223255                       # Total number of references to valid blocks.
system.cpu.icache.tags.sampled_refs              2508                       # Sample count of references to valid blocks.
system.cpu.icache.tags.avg_refs             89.017145                       # Average number of references to valid blocks.
system.cpu.icache.tags.warmup_cycle             66400                       # Cycle when the warmup percentage was hit.
system.cpu.icache.tags.occ_blocks::.cpu.inst   253.429842                       # Average occupied blocks per requestor
system.cpu.icache.tags.occ_percent::.cpu.inst     0.989960                       # Average percentage of cache occupancy
system.cpu.icache.tags.occ_percent::total     0.989960                       # Average percentage of cache occupancy
system.cpu.icache.tags.occ_task_id_blocks::1024          256                       # Occupied blocks per task id
system.cpu.icache.tags.age_task_id_blocks_1024::0          146                       # Occupied blocks per task id
system.cpu.icache.tags.age_task_id_blocks_1024::1           93                       # Occupied blocks per task id
system.cpu.icache.tags.age_task_id_blocks_1024::2           17                       # Occupied blocks per task id
system.cpu.icache.tags.occ_task_id_percent::1024            1                       # Percentage of cache occupancy per task id
system.cpu.icache.tags.tag_accesses            471418                       # Number of tag accesses
system.cpu.icache.tags.data_accesses           471418                       # Number of data accesses
system.cpu.dtb.walker.pwrStateResidencyTicks::UNDEFINED   1077868000                       # Cumulative time (in ticks) in various power states
system.cpu.interrupts.clk_domain.clock           6400                       # Clock period in ticks
system.cpu.itb.walker.pwrStateResidencyTicks::UNDEFINED   1077868000                       # Cumulative time (in ticks) in various power states
system.cpu.dcache.pwrStateResidencyTicks::UNDEFINED   1077868000                       # Cumulative time (in ticks) in various power states
system.cpu.dcache.demand_hits::.cpu.data       660872                       # number of demand (read+write) hits
system.cpu.dcache.demand_hits::total           660872                       # number of demand (read+write) hits
system.cpu.dcache.overall_hits::.cpu.data       660872                       # number of overall hits
system.cpu.dcache.overall_hits::total          660872                       # number of overall hits
system.cpu.dcache.demand_misses::.cpu.data        34763                       # number of demand (read+write) misses
system.cpu.dcache.demand_misses::total          34763                       # number of demand (read+write) misses
system.cpu.dcache.overall_misses::.cpu.data        34763                       # number of overall misses
system.cpu.dcache.overall_misses::total         34763                       # number of overall misses
system.cpu.dcache.demand_miss_latency::.cpu.data   1675434800                       # number of demand (read+write) miss cycles
system.cpu.dcache.demand_miss_latency::total   1675434800                       # number of demand (read+write) miss cycles
system.cpu.dcache.overall_miss_latency::.cpu.data   1675434800                       # number of overall miss cycles
system.cpu.dcache.overall_miss_latency::total   1675434800                       # number of overall miss cycles
system.cpu.dcache.demand_accesses::.cpu.data       695635                       # number of demand (read+write) accesses
system.cpu.dcache.demand_accesses::total       695635                       # number of demand (read+write) accesses
system.cpu.dcache.overall_accesses::.cpu.data       695635                       # number of overall (read+write) accesses
system.cpu.dcache.overall_accesses::total       695635                       # number of overall (read+write) accesses
system.cpu.dcache.demand_miss_rate::.cpu.data     0.049973                       # miss rate for demand accesses
system.cpu.dcache.demand_miss_rate::total     0.049973                       # miss rate for demand accesses
system.cpu.dcache.overall_miss_rate::.cpu.data     0.049973                       # miss rate for overall accesses
system.cpu.dcache.overall_miss_rate::total     0.049973                       # miss rate for overall accesses
system.cpu.dcache.demand_avg_miss_latency::.cpu.data 48195.920950                       # average overall miss latency
system.cpu.dcache.demand_avg_miss_latency::total 48195.920950                       # average overall miss latency
system.cpu.dcache.overall_avg_miss_latency::.cpu.data 48195.920950                       # average overall miss latency
system.cpu.dcache.overall_avg_miss_latency::total 48195.920950                       # average overall miss latency
system.cpu.dcache.blocked_cycles::no_mshrs        29388                       # number of cycles access was blocked
system.cpu.dcache.blocked_cycles::no_targets          138                       # number of cycles access was blocked
system.cpu.dcache.blocked::no_mshrs               730                       # number of cycles access was blocked
system.cpu.dcache.blocked::no_targets               1                       # number of cycles access was blocked
system.cpu.dcache.avg_blocked_cycles::no_mshrs    40.257534                       # average number of cycles each access was blocked
system.cpu.dcache.avg_blocked_cycles::no_targets          138                       # average number of cycles each access was blocked
system.cpu.dcache.unused_prefetches              1781                       # number of HardPF blocks evicted w/o reference
system.cpu.dcache.writebacks::.writebacks         2732                       # number of writebacks
system.cpu.dcache.writebacks::total              2732                       # number of writebacks
system.cpu.dcache.demand_mshr_hits::.cpu.data        22213                       # number of demand (read+write) MSHR hits
system.cpu.dcache.demand_mshr_hits::total        22213                       # number of demand (read+write) MSHR hits
system.cpu.dcache.overall_mshr_hits::.cpu.data        22213                       # number of overall MSHR hits
system.cpu.dcache.overall_mshr_hits::total        22213                       # number of overall MSHR hits
system.cpu.dcache.demand_mshr_misses::.cpu.data        12550                       # number of demand (read+write) MSHR misses
system.cpu.dcache.demand_mshr_misses::total        12550                       # number of demand (read+write) MSHR misses
system.cpu.dcache.overall_mshr_misses::.cpu.data        12550                       # number of overall MSHR misses
system.cpu.dcache.overall_mshr_misses::.cpu.dcache.prefetcher         4298                       # number of overall MSHR misses
system.cpu.dcache.overall_mshr_misses::total        16848                       # number of overall MSHR misses
system.cpu.dcache.demand_mshr_miss_latency::.cpu.data    576164000                       # number of demand (read+write) MSHR miss cycles
system.cpu.dcache.demand_mshr_miss_latency::total    576164000                       # number of demand (read+write) MSHR miss cycles
system.cpu.dcache.overall_mshr_miss_latency::.cpu.data    576164000                       # number of overall MSHR miss cycles
system.cpu.dcache.overall_mshr_miss_latency::.cpu.dcache.prefetcher    248141009                       # number of overall MSHR miss cycles
system.cpu.dcache.overall_mshr_miss_latency::total    824305009                       # number of overall MSHR miss cycles
system.cpu.dcache.demand_mshr_miss_rate::.cpu.data     0.018041                       # mshr miss rate for demand accesses
system.cpu.dcache.demand_mshr_miss_rate::total     0.018041                       # mshr miss rate for demand accesses
system.cpu.dcache.overall_mshr_miss_rate::.cpu.data     0.018041                       # mshr miss rate for overall accesses
system.cpu.dcache.overall_mshr_miss_rate::.cpu.dcache.prefetcher          inf                       # mshr miss rate for overall accesses
system.cpu.dcache.overall_mshr_miss_rate::total     0.024220                       # mshr miss rate for overall accesses
system.cpu.dcache.demand_avg_mshr_miss_latency::.cpu.data 45909.482072                       # average overall mshr miss latency
system.cpu.dcache.demand_avg_mshr_miss_latency::total 45909.482072                       # average overall mshr miss latency
system.cpu.dcache.overall_avg_mshr_miss_latency::.cpu.data 45909.482072                       # average overall mshr miss latency
system.cpu.dcache.overall_avg_mshr_miss_latency::.cpu.dcache.prefetcher 57734.064449                       # average overall mshr miss latency
system.cpu.dcache.overall_avg_mshr_miss_latency::total 48925.985814                       # average overall mshr miss latency
system.cpu.dcache.replacements                  15824                       # number of replacements
system.cpu.dcache.ReadReq_hits::.cpu.data       494978                       # number of ReadReq hits
system.cpu.dcache.ReadReq_hits::total          494978                       # number of ReadReq hits
system.cpu.dcache.ReadReq_misses::.cpu.data        32660                       # number of ReadReq misses
system.cpu.dcache.ReadReq_misses::total         32660                       # number of ReadReq misses
system.cpu.dcache.ReadReq_miss_latency::.cpu.data   1571094400                       # number of ReadReq miss cycles
system.cpu.dcache.ReadReq_miss_latency::total   1571094400                       # number of ReadReq miss cycles
system.cpu.dcache.ReadReq_accesses::.cpu.data       527638                       # number of ReadReq accesses(hits+misses)
system.cpu.dcache.ReadReq_accesses::total       527638                       # number of ReadReq accesses(hits+misses)
system.cpu.dcache.ReadReq_miss_rate::.cpu.data     0.061898                       # miss rate for ReadReq accesses
system.cpu.dcache.ReadReq_miss_rate::total     0.061898                       # miss rate for ReadReq accesses
system.cpu.dcache.ReadReq_avg_miss_latency::.cpu.data 48104.543784                       # average ReadReq miss latency
system.cpu.dcache.ReadReq_avg_miss_latency::total 48104.543784                       # average ReadReq miss latency
system.cpu.dcache.ReadReq_mshr_hits::.cpu.data        22178                       # number of ReadReq MSHR hits
system.cpu.dcache.ReadReq_mshr_hits::total        22178                       # number of ReadReq MSHR hits
system.cpu.dcache.ReadReq_mshr_misses::.cpu.data        10482                       # number of ReadReq MSHR misses
system.cpu.dcache.ReadReq_mshr_misses::total        10482                       # number of ReadReq MSHR misses
system.cpu.dcache.ReadReq_mshr_miss_latency::.cpu.data    474820400                       # number of ReadReq MSHR miss cycles
system.cpu.dcache.ReadReq_mshr_miss_latency::total    474820400                       # number of ReadReq MSHR miss cycles
system.cpu.dcache.ReadReq_mshr_miss_rate::.cpu.data     0.019866                       # mshr miss rate for ReadReq accesses
system.cpu.dcache.ReadReq_mshr_miss_rate::total     0.019866                       # mshr miss rate for ReadReq accesses
system.cpu.dcache.ReadReq_avg_mshr_miss_latency::.cpu.data 45298.645297                       # average ReadReq mshr miss latency
system.cpu.dcache.ReadReq_avg_mshr_miss_latency::total 45298.645297                       # average ReadReq mshr miss latency
system.cpu.dcache.WriteReq_hits::.cpu.data       165894                       # number of WriteReq hits
system.cpu.dcache.WriteReq_hits::total         165894                       # number of WriteReq hits
system.cpu.dcache.WriteReq_misses::.cpu.data         2103                       # number of WriteReq misses
system.cpu.dcache.WriteReq_misses::total         2103                       # number of WriteReq misses
system.cpu.dcache.WriteReq_miss_latency::.cpu.data    104340400                       # number of WriteReq miss cycles
system.cpu.dcache.WriteReq_miss_latency::total    104340400                       # number of WriteReq miss cycles
system.cpu.dcache.WriteReq_accesses::.cpu.data       167997                       # number of WriteReq accesses(hits+misses)
system.cpu.dcache.WriteReq_accesses::total       167997                       # number of WriteReq accesses(hits+misses)
system.cpu.dcache.WriteReq_miss_rate::.cpu.data     0.012518                       # miss rate for WriteReq accesses
system.cpu.dcache.WriteReq_miss_rate::total     0.012518                       # miss rate for WriteReq accesses
system.cpu.dcache.WriteReq_avg_miss_latency::.cpu.data 49615.026153                       # average WriteReq miss latency
system.cpu.dcache.WriteReq_avg_miss_latency::total 49615.026153                       # average WriteReq miss latency
system.cpu.dcache.WriteReq_mshr_hits::.cpu.data           35                       # number of WriteReq MSHR hits
system.cpu.dcache.WriteReq_mshr_hits::total           35                       # number of WriteReq MSHR hits
system.cpu.dcache.WriteReq_mshr_misses::.cpu.data         2068                       # number of WriteReq MSHR misses
system.cpu.dcache.WriteReq_mshr_misses::total         2068                       # number of WriteReq MSHR misses
system.cpu.dcache.WriteReq_mshr_miss_latency::.cpu.data    101343600                       # number of WriteReq MSHR miss cycles
system.cpu.dcache.WriteReq_mshr_miss_latency::total    101343600                       # number of WriteReq MSHR miss cycles
[...]
system.l2cache.demand_mshr_misses::.cpu.data          122                       # number of demand (read+write) MSHR misses
system.l2cache.demand_mshr_misses::.cpu.dcache.prefetcher           43                       # number of demand (read+write) MSHR misses
system.l2cache.demand_mshr_misses::total          404                       # number of demand (read+write) MSHR misses
system.l2cache.overall_mshr_misses::.cpu.inst          239                       # number of overall MSHR misses
system.l2cache.overall_mshr_misses::.cpu.data          122                       # number of overall MSHR misses
system.l2cache.overall_mshr_misses::.cpu.dcache.prefetcher           43                       # number of overall MSHR misses
system.l2cache.overall_mshr_misses::total          404                       # number of overall MSHR misses
system.l2cache.demand_mshr_miss_latency::.cpu.inst     14278400                       # number of demand (read+write) MSHR miss cycles
system.l2cache.demand_mshr_miss_latency::.cpu.data      7368400                       # number of demand (read+write) MSHR miss cycles
system.l2cache.demand_mshr_miss_latency::.cpu.dcache.prefetcher      2619957                       # number of demand (read+write) MSHR miss cycles
system.l2cache.demand_mshr_miss_latency::total     24266757                       # number of demand (read+write) MSHR miss cycles
system.l2cache.overall_mshr_miss_latency::.cpu.inst     14278400                       # number of overall MSHR miss cycles
system.l2cache.overall_mshr_miss_latency::.cpu.data      7368400                       # number of overall MSHR miss cycles
system.l2cache.overall_mshr_miss_latency::.cpu.dcache.prefetcher      2619957                       # number of overall MSHR miss cycles
system.l2cache.overall_mshr_miss_latency::total     24266757                       # number of overall MSHR miss cycles
system.l2cache.demand_mshr_miss_rate::.cpu.inst     0.526432                       # mshr miss rate for demand accesses
system.l2cache.demand_mshr_miss_rate::.cpu.data     0.535088                       # mshr miss rate for demand accesses
system.l2cache.demand_mshr_miss_rate::.cpu.dcache.prefetcher     0.796296                       # mshr miss rate for demand accesses
system.l2cache.demand_mshr_miss_rate::total     0.548913                       # mshr miss rate for demand accesses
system.l2cache.overall_mshr_miss_rate::.cpu.inst     0.526432                       # mshr miss rate for overall accesses
system.l2cache.overall_mshr_miss_rate::.cpu.data     0.535088                       # mshr miss rate for overall accesses
system.l2cache.overall_mshr_miss_rate::.cpu.dcache.prefetcher     0.796296                       # mshr miss rate for overall accesses
system.l2cache.overall_mshr_miss_rate::total     0.548913                       # mshr miss rate for overall accesses
system.l2cache.demand_avg_mshr_miss_latency::.cpu.inst 59742.259414                       # average overall mshr miss latency
system.l2cache.demand_avg_mshr_miss_latency::.cpu.data 60396.721311                       # average overall mshr miss latency
system.l2cache.demand_avg_mshr_miss_latency::.cpu.dcache.prefetcher 60929.232558                       # average overall mshr miss latency
system.l2cache.demand_avg_mshr_miss_latency::total 60066.230198                       # average overall mshr miss latency
system.l2cache.overall_avg_mshr_miss_latency::.cpu.inst 59742.259414                       # average overall mshr miss latency
system.l2cache.overall_avg_mshr_miss_latency::.cpu.data 60396.721311                       # average overall mshr miss latency
system.l2cache.overall_avg_mshr_miss_latency::.cpu.dcache.prefetcher 60929.232558                       # average overall mshr miss latency
system.l2cache.overall_avg_mshr_miss_latency::total 60066.230198                       # average overall mshr miss latency
system.l2cache.replacements                       412                       # number of replacements
system.l2cache.WritebackDirty_hits::.writebacks           64                       # number of WritebackDirty hits
system.l2cache.WritebackDirty_hits::total           64                       # number of WritebackDirty hits
system.l2cache.WritebackDirty_accesses::.writebacks           64                       # number of WritebackDirty accesses(hits+misses)
system.l2cache.WritebackDirty_accesses::total           64                       # number of WritebackDirty accesses(hits+misses)
system.l2cache.CleanEvict_mshr_misses::.writebacks            8                       # number of CleanEvict MSHR misses
system.l2cache.CleanEvict_mshr_misses::total            8                       # number of CleanEvict MSHR misses
system.l2cache.CleanEvict_mshr_miss_rate::.writebacks          inf                       # mshr miss rate for CleanEvict accesses
system.l2cache.CleanEvict_mshr_miss_rate::total          inf                       # mshr miss rate for CleanEvict accesses
system.l2cache.ReadExReq_hits::.cpu.data            4                       # number of ReadExReq hits
system.l2cache.ReadExReq_hits::total                4                       # number of ReadExReq hits
system.l2cache.ReadExReq_misses::.cpu.data            8                       # number of ReadExReq misses
system.l2cache.ReadExReq_misses::total              8                       # number of ReadExReq misses
system.l2cache.ReadExReq_miss_latency::.cpu.data       549200                       # number of ReadExReq miss cycles
system.l2cache.ReadExReq_miss_latency::total       549200                       # number of ReadExReq miss cycles
system.l2cache.ReadExReq_accesses::.cpu.data           12                       # number of ReadExReq accesses(hits+misses)
system.l2cache.ReadExReq_accesses::total           12                       # number of ReadExReq accesses(hits+misses)
system.l2cache.ReadExReq_miss_rate::.cpu.data     0.666667                       # miss rate for ReadExReq accesses
system.l2cache.ReadExReq_miss_rate::total     0.666667                       # miss rate for ReadExReq accesses
system.l2cache.ReadExReq_avg_miss_latency::.cpu.data        68650                       # average ReadExReq miss latency
system.l2cache.ReadExReq_avg_miss_latency::total        68650                       # average ReadExReq miss latency
system.l2cache.ReadExReq_mshr_misses::.cpu.data            8                       # number of ReadExReq MSHR misses
system.l2cache.ReadExReq_mshr_misses::total            8                       # number of ReadExReq MSHR misses
system.l2cache.ReadExReq_mshr_miss_latency::.cpu.data       485200                       # number of ReadExReq MSHR miss cycles
system.l2cache.ReadExReq_mshr_miss_latency::total       485200                       # number of ReadExReq MSHR miss cycles
system.l2cache.ReadExReq_mshr_miss_rate::.cpu.data     0.666667                       # mshr miss rate for ReadExReq accesses
system.l2cache.ReadExReq_mshr_miss_rate::total     0.666667                       # mshr miss rate for ReadExReq accesses
system.l2cache.ReadExReq_avg_mshr_miss_latency::.cpu.data        60650                       # average ReadExReq mshr miss latency
system.l2cache.ReadExReq_avg_mshr_miss_latency::total        60650                       # average ReadExReq mshr miss latency
system.l2cache.ReadSharedReq_hits::.cpu.inst          215                       # number of ReadSharedReq hits
system.l2cache.ReadSharedReq_hits::.cpu.data          102                       # number of ReadSharedReq hits
system.l2cache.ReadSharedReq_hits::.cpu.dcache.prefetcher           11                       # number of ReadSharedReq hits
system.l2cache.ReadSharedReq_hits::total          328                       # number of ReadSharedReq hits
system.l2cache.ReadSharedReq_misses::.cpu.inst          239                       # number of ReadSharedReq misses
system.l2cache.ReadSharedReq_misses::.cpu.data          114                       # number of ReadSharedReq misses
system.l2cache.ReadSharedReq_misses::.cpu.dcache.prefetcher           43                       # number of ReadSharedReq misses
system.l2cache.ReadSharedReq_misses::total          396                       # number of ReadSharedReq misses
system.l2cache.ReadSharedReq_miss_latency::.cpu.inst     16182400                       # number of ReadSharedReq miss cycles
system.l2cache.ReadSharedReq_miss_latency::.cpu.data      7795200                       # number of ReadSharedReq miss cycles
system.l2cache.ReadSharedReq_miss_latency::.cpu.dcache.prefetcher      2963957                       # number of ReadSharedReq miss cycles
system.l2cache.ReadSharedReq_miss_latency::total     26941557                       # number of ReadSharedReq miss cycles
system.l2cache.ReadSharedReq_accesses::.cpu.inst          454                       # number of ReadSharedReq accesses(hits+misses)
system.l2cache.ReadSharedReq_accesses::.cpu.data          216                       # number of ReadSharedReq accesses(hits+misses)
system.l2cache.ReadSharedReq_accesses::.cpu.dcache.prefetcher           54                       # number of ReadSharedReq accesses(hits+misses)
system.l2cache.ReadSharedReq_accesses::total          724                       # number of ReadSharedReq accesses(hits+misses)
system.l2cache.ReadSharedReq_miss_rate::.cpu.inst     0.526432                       # miss rate for ReadSharedReq accesses
system.l2cache.ReadSharedReq_miss_rate::.cpu.data     0.527778                       # miss rate for ReadSharedReq accesses
system.l2cache.ReadSharedReq_miss_rate::.cpu.dcache.prefetcher     0.796296                       # miss rate for ReadSharedReq accesses
system.l2cache.ReadSharedReq_miss_rate::total     0.546961                       # miss rate for ReadSharedReq accesses
system.l2cache.ReadSharedReq_avg_miss_latency::.cpu.inst 67708.786611                       # average ReadSharedReq miss latency
system.l2cache.ReadSharedReq_avg_miss_latency::.cpu.data 68378.947368                       # average ReadSharedReq miss latency
system.l2cache.ReadSharedReq_avg_miss_latency::.cpu.dcache.prefetcher 68929.232558                       # average ReadSharedReq miss latency
system.l2cache.ReadSharedReq_avg_miss_latency::total 68034.234848                       # average ReadSharedReq miss latency
system.l2cache.ReadSharedReq_mshr_misses::.cpu.inst          239                       # number of ReadSharedReq MSHR misses
system.l2cache.ReadSharedReq_mshr_misses::.cpu.data          114                       # number of ReadSharedReq MSHR misses
system.l2cache.ReadSharedReq_mshr_misses::.cpu.dcache.prefetcher           43                       # number of ReadSharedReq MSHR misses
system.l2cache.ReadSharedReq_mshr_misses::total          396                       # number of ReadSharedReq MSHR misses
system.l2cache.ReadSharedReq_mshr_miss_latency::.cpu.inst     14278400                       # number of ReadSharedReq MSHR miss cycles
system.l2cache.ReadSharedReq_mshr_miss_latency::.cpu.data      6883200                       # number of ReadSharedReq MSHR miss cycles
system.l2cache.ReadSharedReq_mshr_miss_latency::.cpu.dcache.prefetcher      2619957                       # number of ReadSharedReq MSHR miss cycles
system.l2cache.ReadSharedReq_mshr_miss_latency::total     23781557                       # number of ReadSharedReq MSHR miss cycles
system.l2cache.ReadSharedReq_mshr_miss_rate::.cpu.inst     0.526432                       # mshr miss rate for ReadSharedReq accesses
system.l2cache.ReadSharedReq_mshr_miss_rate::.cpu.data     0.527778                       # mshr miss rate for ReadSharedReq accesses
system.l2cache.ReadSharedReq_mshr_miss_rate::.cpu.dcache.prefetcher     0.796296                       # mshr miss rate for ReadSharedReq accesses
system.l2cache.ReadSharedReq_mshr_miss_rate::total     0.546961                       # mshr miss rate for ReadSharedReq accesses
system.l2cache.ReadSharedReq_avg_mshr_miss_latency::.cpu.inst 59742.259414                       # average ReadSharedReq mshr miss latency
system.l2cache.ReadSharedReq_avg_mshr_miss_latency::.cpu.data 60378.947368                       # average ReadSharedReq mshr miss latency
system.l2cache.ReadSharedReq_avg_mshr_miss_latency::.cpu.dcache.prefetcher 60929.232558                       # average ReadSharedReq mshr miss latency
system.l2cache.ReadSharedReq_avg_mshr_miss_latency::total 60054.436869                       # average ReadSharedReq mshr miss latency
system.l2cache.prefetcher.pwrStateResidencyTicks::UNDEFINED     27742400                       # Cumulative time (in ticks) in various power states
system.l2cache.tags.pwrStateResidencyTicks::UNDEFINED     27742400                       # Cumulative time (in ticks) in various power states
system.l2cache.tags.tagsinuse                    4096                       # Cycle average of tags in use
system.l2cache.tags.total_refs                  13809                       # Total number of references to valid blocks.
system.l2cache.tags.sampled_refs                 4508                       # Sample count of references to valid blocks.
system.l2cache.tags.avg_refs                 3.063221                       # Average number of references to valid blocks.
system.l2cache.tags.warmup_cycle                    0                       # Cycle when the warmup percentage was hit.
system.l2cache.tags.occ_blocks::.writebacks    43.465540                       # Average occupied blocks per requestor
system.l2cache.tags.occ_blocks::.cpu.inst  1099.141160                       # Average occupied blocks per requestor
system.l2cache.tags.occ_blocks::.cpu.data  1812.556317                       # Average occupied blocks per requestor
system.l2cache.tags.occ_blocks::.cpu.dcache.prefetcher   997.831505                       # Average occupied blocks per requestor
system.l2cache.tags.occ_blocks::.l2cache.prefetcher   143.005479                       # Average occupied blocks per requestor
system.l2cache.tags.occ_percent::.writebacks     0.010612                       # Average percentage of cache occupancy
system.l2cache.tags.occ_percent::.cpu.inst     0.268345                       # Average percentage of cache occupancy
system.l2cache.tags.occ_percent::.cpu.data     0.442519                       # Average percentage of cache occupancy
system.l2cache.tags.occ_percent::.cpu.dcache.prefetcher     0.243611                       # Average percentage of cache occupancy
system.l2cache.tags.occ_percent::.l2cache.prefetcher     0.034913                       # Average percentage of cache occupancy
system.l2cache.tags.occ_percent::total              1                       # Average percentage of cache occupancy
system.l2cache.tags.occ_task_id_blocks::1022         1074                       # Occupied blocks per task id
system.l2cache.tags.occ_task_id_blocks::1024         3022                       # Occupied blocks per task id
system.l2cache.tags.age_task_id_blocks_1022::0            7                       # Occupied blocks per task id
system.l2cache.tags.age_task_id_blocks_1022::1          161                       # Occupied blocks per task id
system.l2cache.tags.age_task_id_blocks_1022::2          905                       # Occupied blocks per task id
system.l2cache.tags.age_task_id_blocks_1022::3            1                       # Occupied blocks per task id
system.l2cache.tags.age_task_id_blocks_1024::0          167                       # Occupied blocks per task id
system.l2cache.tags.age_task_id_blocks_1024::1         1055                       # Occupied blocks per task id
system.l2cache.tags.age_task_id_blocks_1024::2         1772                       # Occupied blocks per task id
system.l2cache.tags.age_task_id_blocks_1024::3           28                       # Occupied blocks per task id
system.l2cache.tags.occ_task_id_percent::1022     0.262207                       # Percentage of cache occupancy per task id
system.l2cache.tags.occ_task_id_percent::1024     0.737793                       # Percentage of cache occupancy per task id
system.l2cache.tags.tag_accesses                12180                       # Number of tag accesses
system.l2cache.tags.data_accesses               12180                       # Number of data accesses
system.mem_ctrl.pwrStateResidencyTicks::UNDEFINED     27742400                       # Cumulative time (in ticks) in various power states
system.mem_ctrl.bytes_read::.cpu.inst           15232                       # Number of bytes read from this memory
system.mem_ctrl.bytes_read::.cpu.data            7808                       # Number of bytes read from this memory
system.mem_ctrl.bytes_read::.cpu.dcache.prefetcher         2752                       # Number of bytes read from this memory
system.mem_ctrl.bytes_read::total               25792                       # Number of bytes read from this memory
system.mem_ctrl.bytes_inst_read::.cpu.inst        15232                       # Number of instructions bytes read from this memory
system.mem_ctrl.bytes_inst_read::total          15232                       # Number of instructions bytes read from this memory
system.mem_ctrl.bytes_written::.writebacks         1856                       # Number of bytes written to this memory
system.mem_ctrl.bytes_written::total             1856                       # Number of bytes written to this memory
system.mem_ctrl.num_reads::.cpu.inst              238                       # Number of read requests responded to by this memory
system.mem_ctrl.num_reads::.cpu.data              122                       # Number of read requests responded to by this memory
system.mem_ctrl.num_reads::.cpu.dcache.prefetcher           43                       # Number of read requests responded to by this memory
system.mem_ctrl.num_reads::total                  403                       # Number of read requests responded to by this memory
system.mem_ctrl.num_writes::.writebacks            29                       # Number of write requests responded to by this memory
system.mem_ctrl.num_writes::total                  29                       # Number of write requests responded to by this memory
system.mem_ctrl.bw_read::.cpu.inst          549051272                       # Total read bandwidth from this memory (bytes/s)
system.mem_ctrl.bw_read::.cpu.data          281446450                       # Total read bandwidth from this memory (bytes/s)
system.mem_ctrl.bw_read::.cpu.dcache.prefetcher     99198339                       # Total read bandwidth from this memory (bytes/s)
system.mem_ctrl.bw_read::total              929696061                       # Total read bandwidth from this memory (bytes/s)
system.mem_ctrl.bw_inst_read::.cpu.inst     549051272                       # Instruction read bandwidth from this memory (bytes/s)
system.mem_ctrl.bw_inst_read::total         549051272                       # Instruction read bandwidth from this memory (bytes/s)
system.mem_ctrl.bw_write::.writebacks        66901205                       # Write bandwidth from this memory (bytes/s)
system.mem_ctrl.bw_write::total              66901205                       # Write bandwidth from this memory (bytes/s)
system.mem_ctrl.bw_total::.writebacks        66901205                       # Total bandwidth to/from this memory (bytes/s)
system.mem_ctrl.bw_total::.cpu.inst         549051272                       # Total bandwidth to/from this memory (bytes/s)
system.mem_ctrl.bw_total::.cpu.data         281446450                       # Total bandwidth to/from this memory (bytes/s)
system.mem_ctrl.bw_total::.cpu.dcache.prefetcher     99198339                       # Total bandwidth to/from this memory (bytes/s)
system.mem_ctrl.bw_total::total             996597266                       # Total bandwidth to/from this memory (bytes/s)

---------- End Simulation Statistics   ----------
