
---------- Begin Simulation Statistics ----------
final_tick                                 1083850000                       # Number of ticks from beginning of simulation (restored from checkpoints and never reset)
host_inst_rate                                 151578                       # Simulator instruction rate (inst/s)
host_mem_usage                                4402740                       # Number of bytes of host memory used
host_op_rate                                   263323                       # Simulator op (including micro ops) rate (op/s)
host_seconds                                    13.56                       # Real time elapsed on the host
host_tick_rate                               79925615                       # Simulator tick rate (ticks/s)
sim_freq                                 1000000000000                       # Frequency of simulated ticks
sim_insts                                     2055493                       # Number of instructions simulated
sim_ops                                       3570845                       # Number of ops (including micro ops) simulated
sim_seconds                                  0.001084                       # Number of seconds simulated
sim_ticks                                  1083850000                       # Number of ticks simulated
system.cpu.branchPred.BTBCorrect                    0                       # Number of correct BTB predictions (this stat may not work properly.
system.cpu.branchPred.BTBHitPct              0.000000                       # BTB Hit Percentage
system.cpu.branchPred.BTBHits                       0                       # Number of BTB hits
system.cpu.branchPred.BTBLookups               435278                       # Number of BTB lookups
system.cpu.branchPred.RASInCorrect                  5                       # Number of incorrect RAS predictions.
system.cpu.branchPred.condIncorrect             24136                       # Number of conditional branches incorrect
system.cpu.branchPred.condPredicted            461320                       # Number of conditional branches predicted
system.cpu.branchPred.indirectHits             237670                       # Number of indirect target hits.
system.cpu.branchPred.indirectLookups          435278                       # Number of indirect predictor lookups.
system.cpu.branchPred.indirectMisses           197608                       # Number of indirect misses.
system.cpu.branchPred.lookups                  487438                       # Number of BP lookups
system.cpu.branchPred.usedRAS                   11268                       # Number of times the RAS was used to get a target.
system.cpu.branchPredindirectMispredicted        12106                       # Number of mispredicted indirect branches.
system.cpu.cc_regfile_reads                   2354879                       # number of cc regfile reads
system.cpu.cc_regfile_writes                  1932984                       # number of cc regfile writes
system.cpu.commit.amos                              0                       # Number of atomic instructions committed
system.cpu.commit.branchMispredicts             24218                       # The number of times a branch was mispredicted
system.cpu.commit.branches                     342722                       # Number of branches committed
system.cpu.commit.bw_lim_events                592858                       # number cycles where commit BW limit reached
system.cpu.commit.commitNonSpecStalls             732                       # The number of times commit has been forced to stall to communicate backwards
system.cpu.commit.commitSquashedInsts          887271                       # The number of squashed insts skipped by commit
system.cpu.commit.committedInsts              2055493                       # Number of instructions committed
system.cpu.commit.committedOps                3570845                       # Number of ops (including micro ops) committed
system.cpu.commit.committed_per_cycle::samples      2318004                       # Number of insts commited each cycle
system.cpu.commit.committed_per_cycle::mean     1.540483                       # Number of insts commited each cycle
system.cpu.commit.committed_per_cycle::stdev     1.723805                       # Number of insts commited each cycle
system.cpu.commit.committed_per_cycle::underflows            0      0.00%      0.00% # Number of insts commited each cycle
system.cpu.commit.committed_per_cycle::0      1150069     49.61%     49.61% # Number of insts commited each cycle
system.cpu.commit.committed_per_cycle::1       178224      7.69%     57.30% # Number of insts commited each cycle
system.cpu.commit.committed_per_cycle::2       169370      7.31%     64.61% # Number of insts commited each cycle
system.cpu.commit.committed_per_cycle::3       227483      9.81%     74.42% # Number of insts commited each cycle
system.cpu.commit.committed_per_cycle::4       592858     25.58%    100.00% # Number of insts commited each cycle
system.cpu.commit.committed_per_cycle::overflows            0      0.00%    100.00% # Number of insts commited each cycle
system.cpu.commit.committed_per_cycle::min_value            0                       # Number of insts commited each cycle
system.cpu.commit.committed_per_cycle::max_value            4                       # Number of insts commited each cycle
system.cpu.commit.committed_per_cycle::total      2318004                       # Number of insts commited each cycle
system.cpu.commit.fp_insts                      72844                       # Number of committed floating point instructions.
system.cpu.commit.function_calls                 9460                       # Number of function calls committed.
system.cpu.commit.int_insts                   3516679                       # Number of committed integer instructions.
system.cpu.commit.loads                        488194                       # Number of loads committed
system.cpu.commit.membars                           1                       # Number of memory barriers committed
system.cpu.commit.op_class_0::No_OpClass        20165      0.56%      0.56% # Class of committed instruction
system.cpu.commit.op_class_0::IntAlu          2811995     78.75%     79.31% # Class of committed instruction
system.cpu.commit.op_class_0::IntMult            1787      0.05%     79.36% # Class of committed instruction
system.cpu.commit.op_class_0::IntDiv            37816      1.06%     80.42% # Class of committed instruction
system.cpu.commit.op_class_0::FloatAdd           2834      0.08%     80.50% # Class of committed instruction
system.cpu.commit.op_class_0::FloatCmp              0      0.00%     80.50% # Class of committed instruction
system.cpu.commit.op_class_0::FloatCvt           1200      0.03%     80.54% # Class of committed instruction
system.cpu.commit.op_class_0::FloatMult             0      0.00%     80.54% # Class of committed instruction
system.cpu.commit.op_class_0::FloatMultAcc            0      0.00%     80.54% # Class of committed instruction
system.cpu.commit.op_class_0::FloatDiv              0      0.00%     80.54% # Class of committed instruction
system.cpu.commit.op_class_0::FloatMisc             0      0.00%     80.54% # Class of committed instruction
system.cpu.commit.op_class_0::FloatSqrt             0      0.00%     80.54% # Class of committed instruction
system.cpu.commit.op_class_0::SimdAdd            6184      0.17%     80.71% # Class of committed instruction
system.cpu.commit.op_class_0::SimdAddAcc            0      0.00%     80.71% # Class of committed instruction
system.cpu.commit.op_class_0::SimdAlu           11116      0.31%     81.02% # Class of committed instruction
system.cpu.commit.op_class_0::SimdCmp               0      0.00%     81.02% # Class of committed instruction
system.cpu.commit.op_class_0::SimdCvt           12050      0.34%     81.36% # Class of committed instruction
system.cpu.commit.op_class_0::SimdMisc           6479      0.18%     81.54% # Class of committed instruction
system.cpu.commit.op_class_0::SimdMult              0      0.00%     81.54% # Class of committed instruction
system.cpu.commit.op_class_0::SimdMultAcc            0      0.00%     81.54% # Class of committed instruction
system.cpu.commit.op_class_0::SimdShift          1055      0.03%     81.57% # Class of committed instruction
system.cpu.commit.op_class_0::SimdShiftAcc            0      0.00%     81.57% # Class of committed instruction
system.cpu.commit.op_class_0::SimdDiv               0      0.00%     81.57% # Class of committed instruction
system.cpu.commit.op_class_0::SimdSqrt              0      0.00%     81.57% # Class of committed instruction
system.cpu.commit.op_class_0::SimdFloatAdd            0      0.00%     81.57% # Class of committed instruction
system.cpu.commit.op_class_0::SimdFloatAlu            0      0.00%     81.57% # Class of committed instruction
system.cpu.commit.op_class_0::SimdFloatCmp            0      0.00%     81.57% # Class of committed instruction
system.cpu.commit.op_class_0::SimdFloatCvt            0      0.00%     81.57% # Class of committed instruction
system.cpu.commit.op_class_0::SimdFloatDiv            0      0.00%     81.57% # Class of committed instruction
system.cpu.commit.op_class_0::SimdFloatMisc            0      0.00%     81.57% # Class of committed instruction
system.cpu.commit.op_class_0::SimdFloatMult            0      0.00%     81.57% # Class of committed instruction
system.cpu.commit.op_class_0::SimdFloatMultAcc            0      0.00%     81.57% # Class of committed instruction
system.cpu.commit.op_class_0::SimdFloatSqrt            0      0.00%     81.57% # Class of committed instruction
system.cpu.commit.op_class_0::SimdReduceAdd            0      0.00%     81.57% # Class of committed instruction
system.cpu.commit.op_class_0::SimdReduceAlu            0      0.00%     81.57% # Class of committed instruction
system.cpu.commit.op_class_0::SimdReduceCmp            0      0.00%     81.57% # Class of committed instruction
system.cpu.commit.op_class_0::SimdFloatReduceAdd            0      0.00%     81.57% # Class of committed instruction
system.cpu.commit.op_class_0::SimdFloatReduceCmp            0      0.00%     81.57% # Class of committed instruction
system.cpu.commit.op_class_0::SimdAes               0      0.00%     81.57% # Class of committed instruction
system.cpu.commit.op_class_0::SimdAesMix            0      0.00%     81.57% # Class of committed instruction
system.cpu.commit.op_class_0::SimdSha1Hash            0      0.00%     81.57% # Class of committed instruction
system.cpu.commit.op_class_0::SimdSha1Hash2            0      0.00%     81.57% # Class of committed instruction
system.cpu.commit.op_class_0::SimdSha256Hash            0      0.00%     81.57% # Class of committed instruction
system.cpu.commit.op_class_0::SimdSha256Hash2            0      0.00%     81.57% # Class of committed instruction
system.cpu.commit.op_class_0::SimdShaSigma2            0      0.00%     81.57% # Class of committed instruction
system.cpu.commit.op_class_0::SimdShaSigma3            0      0.00%     81.57% # Class of committed instruction
system.cpu.commit.op_class_0::SimdPredAlu            0      0.00%     81.57% # Class of committed instruction
system.cpu.commit.op_class_0::MemRead          469156     13.14%     94.71% # Class of committed instruction
system.cpu.commit.op_class_0::MemWrite         157901      4.42%     99.13% # Class of committed instruction
system.cpu.commit.op_class_0::FloatMemRead        19038      0.53%     99.66% # Class of committed instruction
system.cpu.commit.op_class_0::FloatMemWrite        12069      0.34%    100.00% # Class of committed instruction
system.cpu.commit.op_class_0::IprAccess             0      0.00%    100.00% # Class of committed instruction
system.cpu.commit.op_class_0::InstPrefetch            0      0.00%    100.00% # Class of committed instruction
system.cpu.commit.op_class_0::total           3570845                       # Class of committed instruction
system.cpu.commit.refs                         658164                       # Number of memory references committed
system.cpu.commit.swp_count                         0                       # Number of s/w prefetches committed
system.cpu.commit.vec_insts                         0                       # Number of committed Vector instructions.
system.cpu.committedInsts                     2055493                       # Number of Instructions Simulated
system.cpu.committedOps                       3570845                       # Number of Ops (including micro ops) Simulated
system.cpu.cpi                               1.318237                       # CPI: Cycles Per Instruction
system.cpu.cpi_total                         1.318237                       # CPI: Total CPI of All Threads
system.cpu.dcache.prefetcher.num_hwpf_issued         7753                       # number of hwpf issued
system.cpu.dcache.prefetcher.pfBufferHit        33377                       # number of redundant prefetches already in prefetch queue
system.cpu.dcache.prefetcher.pfIdentified        48322                       # number of prefetch candidates identified
system.cpu.dcache.prefetcher.pfInCache              0                       # number of redundant prefetches already in cache/mshr dropped
system.cpu.dcache.prefetcher.pfRemovedFull            0                       # number of prefetches dropped due to prefetch queue size
system.cpu.dcache.prefetcher.pfSpanPage          4362                       # number of prefetches that crossed the page
system.cpu.decode.BlockedCycles               1021942                       # Number of cycles decode is blocked
system.cpu.decode.DecodedInsts                4674368                       # Number of instructions handled by decode
system.cpu.decode.IdleCycles                   290392                       # Number of cycles decode is idle
system.cpu.decode.RunCycles                   1134902                       # Number of cycles decode is running
system.cpu.decode.SquashCycles                  24286                       # Number of cycles decode is squashing
system.cpu.decode.UnblockCycles                 88244                       # Number of cycles decode is unblocking
system.cpu.dtb.rdAccesses                      571951                       # TLB accesses on read requests
system.cpu.dtb.rdMisses                          2024                       # TLB misses on read requests
system.cpu.dtb.wrAccesses                      190101                       # TLB accesses on write requests
system.cpu.dtb.wrMisses                           165                       # TLB misses on write requests
system.cpu.fetch.Branches                      487438                       # Number of branches that fetch encountered
system.cpu.fetch.CacheLines                    240774                       # Number of cache lines fetched
system.cpu.fetch.Cycles                       2207295                       # Number of cycles fetch has run and was not squashing or blocked
system.cpu.fetch.IcacheSquashes                  4606                       # Number of outstanding Icache misses that were squashed
system.cpu.fetch.Insts                        2827626                       # Number of instructions fetch has processed
system.cpu.fetch.MiscStallCycles                  109                       # Number of cycles fetch has spent waiting on interrupts, or bad addresses, or out of MSHRs
system.cpu.fetch.PendingQuiesceStallCycles           10                       # Number of stall cycles due to pending quiesce instructions
system.cpu.fetch.PendingTrapStallCycles           598                       # Number of stall cycles due to pending traps
system.cpu.fetch.SquashCycles                   48572                       # Number of cycles fetch has spent squashing
system.cpu.fetch.branchRate                  0.179891                       # Number of branch fetches per cycle
system.cpu.fetch.icacheStallCycles             327468                       # Number of cycles fetch is stalled on an Icache miss
system.cpu.fetch.predictedBranches             248938                       # Number of branches that fetch has predicted taken
system.cpu.fetch.rate                        1.043548                       # Number of inst fetches per cycle
system.cpu.fetch.rateDist::samples            2559766                       # Number of instructions fetched each cycle (Total)
system.cpu.fetch.rateDist::mean              1.934488                       # Number of instructions fetched each cycle (Total)
system.cpu.fetch.rateDist::stdev             1.930792                       # Number of instructions fetched each cycle (Total)
system.cpu.fetch.rateDist::underflows               0      0.00%      0.00% # Number of instructions fetched each cycle (Total)
system.cpu.fetch.rateDist::0                  1218025     47.58%     47.58% # Number of instructions fetched each cycle (Total)
system.cpu.fetch.rateDist::1                    73597      2.88%     50.46% # Number of instructions fetched each cycle (Total)
system.cpu.fetch.rateDist::2                    59207      2.31%     52.77% # Number of instructions fetched each cycle (Total)
system.cpu.fetch.rateDist::3                    75922      2.97%     55.74% # Number of instructions fetched each cycle (Total)
system.cpu.fetch.rateDist::4                  1133015     44.26%    100.00% # Number of instructions fetched each cycle (Total)
system.cpu.fetch.rateDist::overflows                0      0.00%    100.00% # Number of instructions fetched each cycle (Total)
system.cpu.fetch.rateDist::min_value                0                       # Number of instructions fetched each cycle (Total)
system.cpu.fetch.rateDist::max_value                4                       # Number of instructions fetched each cycle (Total)
system.cpu.fetch.rateDist::total              2559766                       # Number of instructions fetched each cycle (Total)
system.cpu.fp_regfile_reads                    118534                       # number of floating regfile reads
system.cpu.fp_regfile_writes                    64808                       # number of floating regfile writes
system.cpu.fuPool.fu_ticks_busy::IntALU(0)    216189200                       # Total ticks fu was busy
system.cpu.fuPool.fu_ticks_busy::IntALU(1)    216189200                       # Total ticks fu was busy
system.cpu.fuPool.fu_ticks_busy::IntALU(2)    216189200                       # Total ticks fu was busy
system.cpu.fuPool.fu_ticks_busy::IntALU(3)    216189200                       # Total ticks fu was busy
system.cpu.fuPool.fu_ticks_busy::IntALU(4)    216188800                       # Total ticks fu was busy
system.cpu.fuPool.fu_ticks_busy::IntALU(5)    216188800                       # Total ticks fu was busy
system.cpu.fuPool.fu_ticks_busy::IntMultDiv(0)      8728000                       # Total ticks fu was busy
system.cpu.fuPool.fu_ticks_busy::IntMultDiv(1)      8727600                       # Total ticks fu was busy
system.cpu.fuPool.fu_ticks_busy::FP_ALU(0)       548800                       # Total ticks fu was busy
system.cpu.fuPool.fu_ticks_busy::FP_ALU(1)       548800                       # Total ticks fu was busy
system.cpu.fuPool.fu_ticks_busy::FP_ALU(2)       548800                       # Total ticks fu was busy
system.cpu.fuPool.fu_ticks_busy::FP_ALU(3)       548800                       # Total ticks fu was busy
system.cpu.fuPool.fu_ticks_busy::FP_MultDiv(0)            0                       # Total ticks fu was busy
system.cpu.fuPool.fu_ticks_busy::FP_MultDiv(1)            0                       # Total ticks fu was busy
system.cpu.fuPool.fu_ticks_busy::SIMD_Unit(0)      4343200                       # Total ticks fu was busy
system.cpu.fuPool.fu_ticks_busy::SIMD_Unit(1)      4307200                       # Total ticks fu was busy
system.cpu.fuPool.fu_ticks_busy::SIMD_Unit(2)      4514000                       # Total ticks fu was busy
system.cpu.fuPool.fu_ticks_busy::SIMD_Unit(3)      4550800                       # Total ticks fu was busy
system.cpu.fuPool.fu_ticks_busy::PredALU(0)            0                       # Total ticks fu was busy
system.cpu.fuPool.fu_ticks_busy::RdWrPort(0)     77715600                       # Total ticks fu was busy
system.cpu.fuPool.fu_ticks_busy::RdWrPort(1)     77652000                       # Total ticks fu was busy
system.cpu.fuPool.fu_ticks_busy::RdWrPort(2)     77644400                       # Total ticks fu was busy
system.cpu.fuPool.fu_ticks_busy::RdWrPort(3)     77684000                       # Total ticks fu was busy
system.cpu.fuPool.fu_ticks_busy::IprPort(0)            0                       # Total ticks fu was busy
system.cpu.fuPool.fu_ticks_busy::total     1645196400                       # Total ticks fu was busy
system.cpu.icache.prefetcher.num_hwpf_issued            0                       # number of hwpf issued
system.cpu.icache.prefetcher.pfBufferHit            0                       # number of redundant prefetches already in prefetch queue
system.cpu.icache.prefetcher.pfIdentified            0                       # number of prefetch candidates identified
system.cpu.icache.prefetcher.pfInCache              0                       # number of redundant prefetches already in cache/mshr dropped
system.cpu.icache.prefetcher.pfRemovedFull            0                       # number of prefetches dropped due to prefetch queue size
system.cpu.icache.prefetcher.pfSpanPage             0                       # number of prefetches that crossed the page
system.cpu.idleCycles                          149860                       # Total number of cycles that the CPU has spent unscheduled due to idling
system.cpu.iew.branchMispredicts                28619                       # Number of branch mispredicts detected at execute
system.cpu.iew.exec_branches                   373356                       # Number of branches executed
system.cpu.iew.exec_nop                             0                       # number of nop insts executed
system.cpu.iew.exec_rate                     1.514906                       # Inst execution rate
system.cpu.iew.exec_refs                       763779                       # number of memory reference insts executed
system.cpu.iew.exec_stores                     190090                       # Number of stores executed
system.cpu.iew.exec_swp                             0                       # number of swp insts executed
system.cpu.iew.iewBlockCycles                  683133                       # Number of cycles IEW is blocking
system.cpu.iew.iewDispLoadInsts                604115                       # Number of dispatched load instructions
system.cpu.iew.iewDispNonSpecInsts                919                       # Number of dispatched non-speculative instructions
system.cpu.iew.iewDispSquashedInsts               630                       # Number of squashed instructions skipped by dispatch
system.cpu.iew.iewDispStoreInsts               200606                       # Number of dispatched store instructions
system.cpu.iew.iewDispatchedInsts             4458042                       # Number of instructions dispatched to IQ
system.cpu.iew.iewExecLoadInsts                573689                       # Number of load instructions executed
system.cpu.iew.iewExecSquashedInsts             34242                       # Number of squashed instructions skipped in execute
system.cpu.iew.iewExecutedInsts               4104828                       # Number of executed instructions
system.cpu.iew.iewIQFullEvents                   3274                       # Number of times the IQ has become full, causing a stall
system.cpu.iew.iewIdleCycles                        0                       # Number of cycles IEW is idle
system.cpu.iew.iewLSQFullEvents                  9726                       # Number of times the LSQ has become full, causing a stall
system.cpu.iew.iewSquashCycles                  24286                       # Number of cycles IEW is squashing
system.cpu.iew.iewUnblockCycles                 15798                       # Number of cycles IEW is unblocking
system.cpu.iew.lsq.thread0.blockedLoads             0                       # Number of blocked loads due to partial load-store forwarding
system.cpu.iew.lsq.thread0.cacheBlocked           609                       # Number of times an access to memory failed due to the cache being blocked
system.cpu.iew.lsq.thread0.forwLoads            39921                       # Number of loads that had data forwarded from stores
system.cpu.iew.lsq.thread0.ignoredResponses          235                       # Number of memory responses ignored because the instruction is squashed
system.cpu.iew.lsq.thread0.invAddrLoads             0                       # Number of loads ignored due to an invalid address
system.cpu.iew.lsq.thread0.invAddrSwpfs             0                       # Number of software prefetches ignored due to an invalid address
system.cpu.iew.lsq.thread0.memOrderViolation           83                       # Number of memory ordering violations
system.cpu.iew.lsq.thread0.rescheduledLoads            0                       # Number of loads that were rescheduled
system.cpu.iew.lsq.thread0.squashedLoads       115919                       # Number of loads squashed
system.cpu.iew.lsq.thread0.squashedStores        30635                       # Number of stores squashed
system.cpu.iew.memOrderViolationEvents             83                       # Number of memory order violations
system.cpu.iew.predictedNotTakenIncorrect        20522                       # Number of branches that were predicted not taken incorrectly
system.cpu.iew.predictedTakenIncorrect           8097                       # Number of branches that were predicted taken incorrectly
system.cpu.iew.wb_consumers                   5765213                       # num instructions consuming a value
system.cpu.iew.wb_count                       4082913                       # cumulative count of insts written-back
system.cpu.iew.wb_fanout                     0.566308                       # average fanout of values written-back
system.cpu.iew.wb_producers                   3264885                       # num instructions producing a value
system.cpu.iew.wb_rate                       1.506818                       # insts written-back per cycle
system.cpu.iew.wb_sent                        4089772                       # cumulative count of insts sent to commit
system.cpu.int_regfile_reads                  6363558                       # number of integer regfile reads
system.cpu.int_regfile_writes                 3531913                       # number of integer regfile writes
system.cpu.ipc                               0.758589                       # IPC: Instructions Per Cycle
system.cpu.ipc_total                         0.758589                       # IPC: Total IPC of All Threads
system.cpu.iq.FU_type_0::No_OpClass             26079      0.63%      0.63% # Type of FU issued
system.cpu.iq.FU_type_0::IntAlu               3242837     78.35%     78.98% # Type of FU issued
system.cpu.iq.FU_type_0::IntMult                 1811      0.04%     79.02% # Type of FU issued
system.cpu.iq.FU_type_0::IntDiv                 41828      1.01%     80.03% # Type of FU issued
system.cpu.iq.FU_type_0::FloatAdd                4260      0.10%     80.13% # Type of FU issued
system.cpu.iq.FU_type_0::FloatCmp                   0      0.00%     80.13% # Type of FU issued
system.cpu.iq.FU_type_0::FloatCvt                1228      0.03%     80.16% # Type of FU issued
system.cpu.iq.FU_type_0::FloatMult                  0      0.00%     80.16% # Type of FU issued
system.cpu.iq.FU_type_0::FloatMultAcc               0      0.00%     80.16% # Type of FU issued
system.cpu.iq.FU_type_0::FloatDiv                   0      0.00%     80.16% # Type of FU issued
system.cpu.iq.FU_type_0::FloatMisc                  0      0.00%     80.16% # Type of FU issued
system.cpu.iq.FU_type_0::FloatSqrt                  0      0.00%     80.16% # Type of FU issued
system.cpu.iq.FU_type_0::SimdAdd                 6784      0.16%     80.33% # Type of FU issued
system.cpu.iq.FU_type_0::SimdAddAcc                 0      0.00%     80.33% # Type of FU issued
system.cpu.iq.FU_type_0::SimdAlu                14799      0.36%     80.69% # Type of FU issued
system.cpu.iq.FU_type_0::SimdCmp                    0      0.00%     80.69% # Type of FU issued
system.cpu.iq.FU_type_0::SimdCvt                13668      0.33%     81.02% # Type of FU issued
system.cpu.iq.FU_type_0::SimdMisc                7032      0.17%     81.19% # Type of FU issued
system.cpu.iq.FU_type_0::SimdMult                   0      0.00%     81.19% # Type of FU issued
system.cpu.iq.FU_type_0::SimdMultAcc                0      0.00%     81.19% # Type of FU issued
system.cpu.iq.FU_type_0::SimdShift               2005      0.05%     81.23% # Type of FU issued
system.cpu.iq.FU_type_0::SimdShiftAcc               0      0.00%     81.23% # Type of FU issued
system.cpu.iq.FU_type_0::SimdDiv                    0      0.00%     81.23% # Type of FU issued
system.cpu.iq.FU_type_0::SimdSqrt                   0      0.00%     81.23% # Type of FU issued
system.cpu.iq.FU_type_0::SimdFloatAdd               0      0.00%     81.23% # Type of FU issued
system.cpu.iq.FU_type_0::SimdFloatAlu               0      0.00%     81.23% # Type of FU issued
system.cpu.iq.FU_type_0::SimdFloatCmp               0      0.00%     81.23% # Type of FU issued
system.cpu.iq.FU_type_0::SimdFloatCvt               0      0.00%     81.23% # Type of FU issued
system.cpu.iq.FU_type_0::SimdFloatDiv               0      0.00%     81.23% # Type of FU issued
system.cpu.iq.FU_type_0::SimdFloatMisc              0      0.00%     81.23% # Type of FU issued
system.cpu.iq.FU_type_0::SimdFloatMult              0      0.00%     81.23% # Type of FU issued
system.cpu.iq.FU_type_0::SimdFloatMultAcc            0      0.00%     81.23% # Type of FU issued
system.cpu.iq.FU_type_0::SimdFloatSqrt              0      0.00%     81.23% # Type of FU issued
system.cpu.iq.FU_type_0::SimdReduceAdd              0      0.00%     81.23% # Type of FU issued
system.cpu.iq.FU_type_0::SimdReduceAlu              0      0.00%     81.23% # Type of FU issued
system.cpu.iq.FU_type_0::SimdReduceCmp              0      0.00%     81.23% # Type of FU issued
system.cpu.iq.FU_type_0::SimdFloatReduceAdd            0      0.00%     81.23% # Type of FU issued
system.cpu.iq.FU_type_0::SimdFloatReduceCmp            0      0.00%     81.23% # Type of FU issued
system.cpu.iq.FU_type_0::SimdAes                    0      0.00%     81.23% # Type of FU issued
system.cpu.iq.FU_type_0::SimdAesMix                 0      0.00%     81.23% # Type of FU issued
system.cpu.iq.FU_type_0::SimdSha1Hash               0      0.00%     81.23% # Type of FU issued
system.cpu.iq.FU_type_0::SimdSha1Hash2              0      0.00%     81.23% # Type of FU issued
system.cpu.iq.FU_type_0::SimdSha256Hash             0      0.00%     81.23% # Type of FU issued
system.cpu.iq.FU_type_0::SimdSha256Hash2            0      0.00%     81.23% # Type of FU issued
system.cpu.iq.FU_type_0::SimdShaSigma2              0      0.00%     81.23% # Type of FU issued
system.cpu.iq.FU_type_0::SimdShaSigma3              0      0.00%     81.23% # Type of FU issued
system.cpu.iq.FU_type_0::SimdPredAlu                0      0.00%     81.23% # Type of FU issued
system.cpu.iq.FU_type_0::MemRead               559517     13.52%     94.75% # Type of FU issued
system.cpu.iq.FU_type_0::MemWrite              179079      4.33%     99.08% # Type of FU issued
system.cpu.iq.FU_type_0::FloatMemRead           24467      0.59%     99.67% # Type of FU issued
system.cpu.iq.FU_type_0::FloatMemWrite          13679      0.33%    100.00% # Type of FU issued
system.cpu.iq.FU_type_0::IprAccess                  0      0.00%    100.00% # Type of FU issued
system.cpu.iq.FU_type_0::InstPrefetch               0      0.00%    100.00% # Type of FU issued
system.cpu.iq.FU_type_0::total                4139073                       # Type of FU issued
system.cpu.iq.fp_alu_accesses                   88890                       # Number of floating point alu accesses
system.cpu.iq.fp_inst_queue_reads              179012                       # Number of floating instruction queue reads
system.cpu.iq.fp_inst_queue_wakeup_accesses        85744                       # Number of floating instruction queue wakeup accesses
system.cpu.iq.fp_inst_queue_writes             127506                       # Number of floating instruction queue writes
system.cpu.iq.fu_busy_cnt                           0                       # FU busy when requested
system.cpu.iq.fu_busy_rate                          0                       # FU busy rate (busy events/executed inst)
system.cpu.iq.fu_full::No_OpClass                   0                       # attempts to use FU when none available
system.cpu.iq.fu_full::IntAlu                       0                       # attempts to use FU when none available
system.cpu.iq.fu_full::IntMult                      0                       # attempts to use FU when none available
system.cpu.iq.fu_full::IntDiv                       0                       # attempts to use FU when none available
system.cpu.iq.fu_full::FloatAdd                     0                       # attempts to use FU when none available
system.cpu.iq.fu_full::FloatCmp                     0                       # attempts to use FU when none available
system.cpu.iq.fu_full::FloatCvt                     0                       # attempts to use FU when none available
system.cpu.iq.fu_full::FloatMult                    0                       # attempts to use FU when none available
system.cpu.iq.fu_full::FloatMultAcc                 0                       # attempts to use FU when none available
system.cpu.iq.fu_full::FloatDiv                     0                       # attempts to use FU when none available
system.cpu.iq.fu_full::FloatMisc                    0                       # attempts to use FU when none available
system.cpu.iq.fu_full::FloatSqrt                    0                       # attempts to use FU when none available
system.cpu.iq.fu_full::SimdAdd                      0                       # attempts to use FU when none available
system.cpu.iq.fu_full::SimdAddAcc                   0                       # attempts to use FU when none available
system.cpu.iq.fu_full::SimdAlu                      0                       # attempts to use FU when none available
system.cpu.iq.fu_full::SimdCmp                      0                       # attempts to use FU when none available
system.cpu.iq.fu_full::SimdCvt                      0                       # attempts to use FU when none available
system.cpu.iq.fu_full::SimdMisc                     0                       # attempts to use FU when none available
system.cpu.iq.fu_full::SimdMult                     0                       # attempts to use FU when none available
system.cpu.iq.fu_full::SimdMultAcc                  0                       # attempts to use FU when none available
system.cpu.iq.fu_full::SimdShift                    0                       # attempts to use FU when none available
system.cpu.iq.fu_full::SimdShiftAcc                 0                       # attempts to use FU when none available
system.cpu.iq.fu_full::SimdDiv                      0                       # attempts to use FU when none available
system.cpu.iq.fu_full::SimdSqrt                     0                       # attempts to use FU when none available
system.cpu.iq.fu_full::SimdFloatAdd                 0                       # attempts to use FU when none available
system.cpu.iq.fu_full::SimdFloatAlu                 0                       # attempts to use FU when none available
system.cpu.iq.fu_full::SimdFloatCmp                 0                       # attempts to use FU when none available
system.cpu.iq.fu_full::SimdFloatCvt                 0                       # attempts to use FU when none available
system.cpu.iq.fu_full::SimdFloatDiv                 0                       # attempts to use FU when none available
system.cpu.iq.fu_full::SimdFloatMisc                0                       # attempts to use FU when none available
system.cpu.iq.fu_full::SimdFloatMult                0                       # attempts to use FU when none available
system.cpu.iq.fu_full::SimdFloatMultAcc             0                       # attempts to use FU when none available
system.cpu.iq.fu_full::SimdFloatSqrt                0                       # attempts to use FU when none available
system.cpu.iq.fu_full::SimdReduceAdd                0                       # attempts to use FU when none available
system.cpu.iq.fu_full::SimdReduceAlu                0                       # attempts to use FU when none available
system.cpu.iq.fu_full::SimdReduceCmp                0                       # attempts to use FU when none available
system.cpu.iq.fu_full::SimdFloatReduceAdd            0                       # attempts to use FU when none available
system.cpu.iq.fu_full::SimdFloatReduceCmp            0                       # attempts to use FU when none available
system.cpu.iq.fu_full::SimdAes                      0                       # attempts to use FU when none available
system.cpu.iq.fu_full::SimdAesMix                   0                       # attempts to use FU when none available
system.cpu.iq.fu_full::SimdSha1Hash                 0                       # attempts to use FU when none available
system.cpu.iq.fu_full::SimdSha1Hash2                0                       # attempts to use FU when none available
system.cpu.iq.fu_full::SimdSha256Hash               0                       # attempts to use FU when none available
system.cpu.iq.fu_full::SimdSha256Hash2              0                       # attempts to use FU when none available
system.cpu.iq.fu_full::SimdShaSigma2                0                       # attempts to use FU when none available
system.cpu.iq.fu_full::SimdShaSigma3                0                       # attempts to use FU when none available
system.cpu.iq.fu_full::SimdPredAlu                  0                       # attempts to use FU when none available
system.cpu.iq.fu_full::MemRead                      0                       # attempts to use FU when none available
system.cpu.iq.fu_full::MemWrite                     0                       # attempts to use FU when none available
system.cpu.iq.fu_full::FloatMemRead                 0                       # attempts to use FU when none available
system.cpu.iq.fu_full::FloatMemWrite                0                       # attempts to use FU when none available
system.cpu.iq.fu_full::IprAccess                    0                       # attempts to use FU when none available
system.cpu.iq.fu_full::InstPrefetch                 0                       # attempts to use FU when none available
system.cpu.iq.int_alu_accesses                4024104                       # Number of integer alu accesses
system.cpu.iq.int_inst_queue_reads           10677064                       # Number of integer instruction queue reads
system.cpu.iq.int_inst_queue_wakeup_accesses      3997169                       # Number of integer instruction queue wakeup accesses
system.cpu.iq.int_inst_queue_writes           5217803                       # Number of integer instruction queue writes
system.cpu.iq.iqInstsAdded                    4456951                       # Number of instructions added to the IQ (excludes non-spec)
system.cpu.iq.iqInstsIssued                   4139073                       # Number of instructions issued
system.cpu.iq.iqNonSpecInstsAdded                1091                       # Number of non-speculative instructions added to the IQ
system.cpu.iq.iqSquashedInstsExamined          887186                       # Number of squashed instructions iterated over during squash; mainly for profiling
system.cpu.iq.iqSquashedInstsIssued             18167                       # Number of squashed instructions issued
system.cpu.iq.iqSquashedNonSpecRemoved            359                       # Number of squashed non-spec instructions that were removed
system.cpu.iq.iqSquashedOperandsExamined      1318619                       # Number of squashed operands that are examined and possibly removed from graph
system.cpu.iq.issued_per_cycle::samples       2559766                       # Number of insts issued each cycle
system.cpu.iq.issued_per_cycle::mean         1.616973                       # Number of insts issued each cycle
system.cpu.iq.issued_per_cycle::stdev        1.669325                       # Number of insts issued each cycle
system.cpu.iq.issued_per_cycle::underflows            0      0.00%      0.00% # Number of insts issued each cycle
system.cpu.iq.issued_per_cycle::0             1161136     45.36%     45.36% # Number of insts issued each cycle
system.cpu.iq.issued_per_cycle::1              172929      6.76%     52.12% # Number of insts issued each cycle
system.cpu.iq.issued_per_cycle::2              299203     11.69%     63.81% # Number of insts issued each cycle
system.cpu.iq.issued_per_cycle::3              338254     13.21%     77.02% # Number of insts issued each cycle
system.cpu.iq.issued_per_cycle::4              588244     22.98%    100.00% # Number of insts issued each cycle
system.cpu.iq.issued_per_cycle::overflows            0      0.00%    100.00% # Number of insts issued each cycle
system.cpu.iq.issued_per_cycle::min_value            0                       # Number of insts issued each cycle
system.cpu.iq.issued_per_cycle::max_value            4                       # Number of insts issued each cycle
system.cpu.iq.issued_per_cycle::total         2559766                       # Number of insts issued each cycle
system.cpu.iq.rate                           1.527544                       # Inst issue rate
system.cpu.iq.vec_alu_accesses                      0                       # Number of vector alu accesses
system.cpu.iq.vec_inst_queue_reads                  0                       # Number of vector instruction queue reads
system.cpu.iq.vec_inst_queue_wakeup_accesses            0                       # Number of vector instruction queue wakeup accesses
system.cpu.iq.vec_inst_queue_writes                 0                       # Number of vector instruction queue writes
system.cpu.itb.rdAccesses                           0                       # TLB accesses on read requests
system.cpu.itb.rdMisses                             0                       # TLB misses on read requests
system.cpu.itb.wrAccesses                      240874                       # TLB accesses on write requests
system.cpu.itb.wrMisses                           339                       # TLB misses on write requests
system.cpu.memDep0.conflictingLoads             11446                       # Number of conflicting loads.
system.cpu.memDep0.conflictingStores             4741                       # Number of conflicting stores.
system.cpu.memDep0.insertedLoads               604115                       # Number of loads inserted to the mem dependence unit.
system.cpu.memDep0.insertedStores              200606                       # Number of stores inserted to the mem dependence unit.
system.cpu.misc_regfile_reads                 1546933                       # number of misc regfile reads
system.cpu.misc_regfile_writes                    675                       # number of misc regfile writes
system.cpu.numCycles                          2709626                       # number of cpu cycles simulated
system.cpu.numWorkItemsCompleted                    0                       # number of work items this cpu completed
system.cpu.numWorkItemsStarted                      0                       # number of work items this cpu started
system.cpu.process.numSyscalls                     56                       # Number of system calls
system.cpu.rename.BlockCycles                  831203                       # Number of cycles rename is blocking
system.cpu.rename.CommittedMaps               4902534                       # Number of HB maps that are committed
system.cpu.rename.FullRegisterEvents              256                       # Number of times there has been no free registers
system.cpu.rename.IQFullEvents                  46159                       # Number of times rename has blocked due to IQ full
system.cpu.rename.IdleCycles                   340439                       # Number of cycles rename is idle
system.cpu.rename.LQFullEvents                  24644                       # Number of times rename has blocked due to LQ full
system.cpu.rename.ROBFullEvents                  6389                       # Number of times rename has blocked due to ROB full
system.cpu.rename.RenameLookups              12019649                       # Number of register rename lookups that rename has made
system.cpu.rename.RenamedInsts                4599772                       # Number of instructions processed by rename
system.cpu.rename.RenamedOperands             6300057                       # Number of destination operands rename has renamed
system.cpu.rename.RunCycles                   1164841                       # Number of cycles rename is running
system.cpu.rename.SQFullEvents                  71525                       # Number of times rename has blocked due to SQ full
system.cpu.rename.SquashCycles                  24286                       # Number of cycles rename is squashing
system.cpu.rename.UnblockCycles                179583                       # Number of cycles rename is unblocking
system.cpu.rename.UndoneMaps                  1397500                       # Number of HB maps that are undone due to squashing
system.cpu.rename.fp_rename_lookups            150732                       # Number of floating rename lookups
system.cpu.rename.int_rename_lookups          7311118                       # Number of integer rename lookups
system.cpu.rename.serializeStallCycles          19414                       # count of cycles rename stalled for serializing inst
system.cpu.rename.serializingInsts                869                       # count of serializing insts renamed
system.cpu.rename.skidInsts                    205706                       # count of insts added to the skid buffer
system.cpu.rename.tempSerializingInsts            915                       # count of temporary serializing insts renamed
system.cpu.rob.rob_reads                      6183262                       # The number of ROB reads
system.cpu.rob.rob_writes                     9158900                       # The number of ROB writes
system.cpu.timesIdled                            1469                       # Number of times that the entire CPU went into an idle state and unscheduled itself
system.l2bus.snoop_filter.hit_multi_requests            8                       # Number of requests hitting in the snoop filter with multiple (>1) holders of the requested data.
system.l2bus.snoop_filter.hit_multi_snoops            0                       # Number of snoops hitting in the snoop filter with multiple (>1) holders of the requested data.
system.l2bus.snoop_filter.hit_single_requests        18138                       # Number of requests hitting in the snoop filter with a single holder of the requested data.
system.l2bus.snoop_filter.hit_single_snoops          411                       # Number of snoops hitting in the snoop filter with a single holder of the requested data.
system.l2bus.snoop_filter.tot_requests          37556                       # Total number of requests made to the snoop filter.
system.l2bus.snoop_filter.tot_snoops              411                       # Total number of snoops made to the snoop filter.
system.l2cache.prefetcher.num_hwpf_issued          778                       # number of hwpf issued
system.l2cache.prefetcher.pfBufferHit               0                       # number of redundant prefetches already in prefetch queue
system.l2cache.prefetcher.pfIdentified            778                       # number of prefetch candidates identified
system.l2cache.prefetcher.pfInCache                 0                       # number of redundant prefetches already in cache/mshr dropped
system.l2cache.prefetcher.pfRemovedFull             0                       # number of prefetches dropped due to prefetch queue size
system.l2cache.prefetcher.pfSpanPage              162                       # number of prefetches that crossed the page
system.membus.snoop_filter.hit_multi_requests            0                       # Number of requests hitting in the snoop filter with multiple (>1) holders of the requested data.
system.membus.snoop_filter.hit_multi_snoops            0                       # Number of snoops hitting in the snoop filter with multiple (>1) holders of the requested data.
system.membus.snoop_filter.hit_single_requests         9234                       # Number of requests hitting in the snoop filter with a single holder of the requested data.
system.membus.snoop_filter.hit_single_snoops            0                       # Number of snoops hitting in the snoop filter with a single holder of the requested data.
system.membus.snoop_filter.tot_requests         22587                       # Total number of requests made to the snoop filter.
system.membus.snoop_filter.tot_snoops               0                       # Total number of snoops made to the snoop filter.
system.membus.pwrStateResidencyTicks::UNDEFINED   1083850000                       # Cumulative time (in ticks) in various power states
system.membus.trans_dist::ReadResp              12009                       # Transaction distribution
system.membus.trans_dist::WritebackDirty         1342                       # Transaction distribution
system.membus.trans_dist::CleanEvict             7892                       # Transaction distribution
system.membus.trans_dist::ReadExReq              1344                       # Transaction distribution
system.membus.trans_dist::ReadExResp             1344                       # Transaction distribution
system.membus.trans_dist::ReadSharedReq         12009                       # Transaction distribution
system.membus.pkt_count_system.l2cache.mem_side::system.mem_ctrl.port        35940                       # Packet count per connected master and slave (bytes)
system.membus.pkt_count_system.l2cache.mem_side::total        35940                       # Packet count per connected master and slave (bytes)
system.membus.pkt_count::total                  35940                       # Packet count per connected master and slave (bytes)
system.membus.pkt_size_system.l2cache.mem_side::system.mem_ctrl.port       940480                       # Cumulative packet size per connected master and slave (bytes)
system.membus.pkt_size_system.l2cache.mem_side::total       940480                       # Cumulative packet size per connected master and slave (bytes)
system.membus.pkt_size::total                  940480                       # Cumulative packet size per connected master and slave (bytes)
system.membus.snoops                                0                       # Total snoops (count)
system.membus.snoopTraffic                          0                       # Total snoop traffic (bytes)
system.membus.snoop_fanout::samples             13353                       # Request fanout histogram
system.membus.snoop_fanout::mean                    0                       # Request fanout histogram
system.membus.snoop_fanout::stdev                   0                       # Request fanout histogram
system.membus.snoop_fanout::underflows              0      0.00%      0.00% # Request fanout histogram
system.membus.snoop_fanout::0                   13353    100.00%    100.00% # Request fanout histogram
system.membus.snoop_fanout::1                       0      0.00%    100.00% # Request fanout histogram
system.membus.snoop_fanout::overflows               0      0.00%    100.00% # Request fanout histogram
system.membus.snoop_fanout::min_value               0                       # Request fanout histogram
system.membus.snoop_fanout::max_value               0                       # Request fanout histogram
system.membus.snoop_fanout::total               13353                       # Request fanout histogram
system.membus.reqLayer2.occupancy            11211597                       # Layer occupancy (ticks)
system.membus.reqLayer2.utilization               1.0                       # Layer utilization (%)
system.membus.respLayer0.occupancy           29010503                       # Layer occupancy (ticks)
system.membus.respLayer0.utilization              2.7                       # Layer utilization (%)
system.l2bus.pwrStateResidencyTicks::UNDEFINED   1083850000                       # Cumulative time (in ticks) in various power states
system.l2bus.trans_dist::ReadResp               17339                       # Transaction distribution
system.l2bus.trans_dist::WritebackDirty          4118                       # Transaction distribution
system.l2bus.trans_dist::CleanEvict             23331                       # Transaction distribution
system.l2bus.trans_dist::HardPFReq               1078                       # Transaction distribution
system.l2bus.trans_dist::ReadExReq               2079                       # Transaction distribution
system.l2bus.trans_dist::ReadExResp              2079                       # Transaction distribution
system.l2bus.trans_dist::ReadSharedReq          17339                       # Transaction distribution
system.l2bus.pkt_count_system.cpu.icache.mem_side::system.l2cache.cpu_side         7521                       # Packet count per connected master and slave (bytes)
system.l2bus.pkt_count_system.cpu.dcache.mem_side::system.l2cache.cpu_side        49451                       # Packet count per connected master and slave (bytes)
system.l2bus.pkt_count::total                   56972                       # Packet count per connected master and slave (bytes)
system.l2bus.pkt_size_system.cpu.icache.mem_side::system.l2cache.cpu_side       165824                       # Cumulative packet size per connected master and slave (bytes)
system.l2bus.pkt_size_system.cpu.dcache.mem_side::system.l2cache.cpu_side      1254464                       # Cumulative packet size per connected master and slave (bytes)
system.l2bus.pkt_size::total                  1420288                       # Cumulative packet size per connected master and slave (bytes)
system.l2bus.snoops                             10391                       # Total snoops (count)
system.l2bus.snoopTraffic                       86016                       # Total snoop traffic (bytes)
system.l2bus.snoop_fanout::samples              29807                       # Request fanout histogram
system.l2bus.snoop_fanout::mean              0.014057                       # Request fanout histogram
system.l2bus.snoop_fanout::stdev             0.117728                       # Request fanout histogram
system.l2bus.snoop_fanout::underflows               0      0.00%      0.00% # Request fanout histogram
system.l2bus.snoop_fanout::0                    29388     98.59%     98.59% # Request fanout histogram
system.l2bus.snoop_fanout::1                      419      1.41%    100.00% # Request fanout histogram
system.l2bus.snoop_fanout::2                        0      0.00%    100.00% # Request fanout histogram
system.l2bus.snoop_fanout::overflows                0      0.00%    100.00% # Request fanout histogram
system.l2bus.snoop_fanout::min_value                0                       # Request fanout histogram
system.l2bus.snoop_fanout::max_value                1                       # Request fanout histogram
system.l2bus.snoop_fanout::total                29807                       # Request fanout histogram
system.l2bus.respLayer1.occupancy            20190399                       # Layer occupancy (ticks)
system.l2bus.respLayer1.utilization               1.9                       # Layer utilization (%)
system.l2bus.reqLayer0.occupancy             18637626                       # Layer occupancy (ticks)
system.l2bus.reqLayer0.utilization                1.7                       # Layer utilization (%)
system.l2bus.respLayer0.occupancy             3111999                       # Layer occupancy (ticks)
system.l2bus.respLayer0.utilization               0.3                       # Layer utilization (%)
system.clk_domain.clock                           400                       # Clock period in ticks
system.clk_domain.voltage_domain.voltage            1                       # Voltage in Volts
system.cpu.pwrStateResidencyTicks::ON      1083850000                       # Cumulative time (in ticks) in various power states
system.cpu.icache.pwrStateResidencyTicks::UNDEFINED   1083850000                       # Cumulative time (in ticks) in various power states
system.cpu.icache.demand_hits::.cpu.inst       237482                       # number of demand (read+write) hits
system.cpu.icache.demand_hits::total           237482                       # number of demand (read+write) hits
system.cpu.icache.overall_hits::.cpu.inst       237482                       # number of overall hits
system.cpu.icache.overall_hits::total          237482                       # number of overall hits
system.cpu.icache.demand_misses::.cpu.inst         3291                       # number of demand (read+write) misses
system.cpu.icache.demand_misses::total           3291                       # number of demand (read+write) misses
system.cpu.icache.overall_misses::.cpu.inst         3291                       # number of overall misses
system.cpu.icache.overall_misses::total          3291                       # number of overall misses
system.cpu.icache.demand_miss_latency::.cpu.inst    168156400                       # number of demand (read+write) miss cycles
system.cpu.icache.demand_miss_latency::total    168156400                       # number of demand (read+write) miss cycles
system.cpu.icache.overall_miss_latency::.cpu.inst    168156400                       # number of overall miss cycles
system.cpu.icache.overall_miss_latency::total    168156400                       # number of overall miss cycles
system.cpu.icache.demand_accesses::.cpu.inst       240773                       # number of demand (read+write) accesses
system.cpu.icache.demand_accesses::total       240773                       # number of demand (read+write) accesses
system.cpu.icache.overall_accesses::.cpu.inst       240773                       # number of overall (read+write) accesses
system.cpu.icache.overall_accesses::total       240773                       # number of overall (read+write) accesses
system.cpu.icache.demand_miss_rate::.cpu.inst     0.013668                       # miss rate for demand accesses
system.cpu.icache.demand_miss_rate::total     0.013668                       # miss rate for demand accesses
system.cpu.icache.overall_miss_rate::.cpu.inst     0.013668                       # miss rate for overall accesses
system.cpu.icache.overall_miss_rate::total     0.013668                       # miss rate for overall accesses
system.cpu.icache.demand_avg_miss_latency::.cpu.inst 51095.837132                       # average overall miss latency
system.cpu.icache.demand_avg_miss_latency::total 51095.837132                       # average overall miss latency
system.cpu.icache.overall_avg_miss_latency::.cpu.inst 51095.837132                       # average overall miss latency
system.cpu.icache.overall_avg_miss_latency::total 51095.837132                       # average overall miss latency
system.cpu.icache.blocked_cycles::no_mshrs           39                       # number of cycles access was blocked
system.cpu.icache.blocked_cycles::no_targets            0                       # number of cycles access was blocked
system.cpu.icache.blocked::no_mshrs                 2                       # number of cycles access was blocked
system.cpu.icache.blocked::no_targets               0                       # number of cycles access was blocked
system.cpu.icache.avg_blocked_cycles::no_mshrs    19.500000                       # average number of cycles each access was blocked
system.cpu.icache.avg_blocked_cycles::no_targets          nan                       # average number of cycles each access was blocked
system.cpu.icache.demand_mshr_hits::.cpu.inst          698                       # number of demand (read+write) MSHR hits
system.cpu.icache.demand_mshr_hits::total          698                       # number of demand (read+write) MSHR hits
system.cpu.icache.overall_mshr_hits::.cpu.inst          698                       # number of overall MSHR hits
system.cpu.icache.overall_mshr_hits::total          698                       # number of overall MSHR hits
system.cpu.icache.demand_mshr_misses::.cpu.inst         2593                       # number of demand (read+write) MSHR misses
system.cpu.icache.demand_mshr_misses::total         2593                       # number of demand (read+write) MSHR misses
system.cpu.icache.overall_mshr_misses::.cpu.inst         2593                       # number of overall MSHR misses
system.cpu.icache.overall_mshr_misses::total         2593                       # number of overall MSHR misses
system.cpu.icache.demand_mshr_miss_latency::.cpu.inst    132754400                       # number of demand (read+write) MSHR miss cycles
system.cpu.icache.demand_mshr_miss_latency::total    132754400                       # number of demand (read+write) MSHR miss cycles
system.cpu.icache.overall_mshr_miss_latency::.cpu.inst    132754400                       # number of overall MSHR miss cycles
system.cpu.icache.overall_mshr_miss_latency::total    132754400                       # number of overall MSHR miss cycles
system.cpu.icache.demand_mshr_miss_rate::.cpu.inst     0.010769                       # mshr miss rate for demand accesses
system.cpu.icache.demand_mshr_miss_rate::total     0.010769                       # mshr miss rate for demand accesses
system.cpu.icache.overall_mshr_miss_rate::.cpu.inst     0.010769                       # mshr miss rate for overall accesses
system.cpu.icache.overall_mshr_miss_rate::total     0.010769                       # mshr miss rate for overall accesses
system.cpu.icache.demand_avg_mshr_miss_latency::.cpu.inst 51197.223293                       # average overall mshr miss latency
system.cpu.icache.demand_avg_mshr_miss_latency::total 51197.223293                       # average overall mshr miss latency
system.cpu.icache.overall_avg_mshr_miss_latency::.cpu.inst 51197.223293                       # average overall mshr miss latency
system.cpu.icache.overall_avg_mshr_miss_latency::total 51197.223293                       # average overall mshr miss latency
system.cpu.icache.replacements                   2337                       # number of replacements
system.cpu.icache.ReadReq_hits::.cpu.inst       237482                       # number of ReadReq hits
system.cpu.icache.ReadReq_hits::total          237482                       # number of ReadReq hits
system.cpu.icache.ReadReq_misses::.cpu.inst         3291                       # number of ReadReq misses
system.cpu.icache.ReadReq_misses::total          3291                       # number of ReadReq misses
system.cpu.icache.ReadReq_miss_latency::.cpu.inst    168156400                       # number of ReadReq miss cycles
system.cpu.icache.ReadReq_miss_latency::total    168156400                       # number of ReadReq miss cycles
system.cpu.icache.ReadReq_accesses::.cpu.inst       240773                       # number of ReadReq accesses(hits+misses)
system.cpu.icache.ReadReq_accesses::total       240773                       # number of ReadReq accesses(hits+misses)
system.cpu.icache.ReadReq_miss_rate::.cpu.inst     0.013668                       # miss rate for ReadReq accesses
system.cpu.icache.ReadReq_miss_rate::total     0.013668                       # miss rate for ReadReq accesses
system.cpu.icache.ReadReq_avg_miss_latency::.cpu.inst 51095.837132                       # average ReadReq miss latency
system.cpu.icache.ReadReq_avg_miss_latency::total 51095.837132                       # average ReadReq miss latency
system.cpu.icache.ReadReq_mshr_hits::.cpu.inst          698                       # number of ReadReq MSHR hits
system.cpu.icache.ReadReq_mshr_hits::total          698                       # number of ReadReq MSHR hits
system.cpu.icache.ReadReq_mshr_misses::.cpu.inst         2593                       # number of ReadReq MSHR misses
system.cpu.icache.ReadReq_mshr_misses::total         2593                       # number of ReadReq MSHR misses
system.cpu.icache.ReadReq_mshr_miss_latency::.cpu.inst    132754400                       # number of ReadReq MSHR miss cycles
system.cpu.icache.ReadReq_mshr_miss_latency::total    132754400                       # number of ReadReq MSHR miss cycles
system.cpu.icache.ReadReq_mshr_miss_rate::.cpu.inst     0.010769                       # mshr miss rate for ReadReq accesses
system.cpu.icache.ReadReq_mshr_miss_rate::total     0.010769                       # mshr miss rate for ReadReq accesses
system.cpu.icache.ReadReq_avg_mshr_miss_latency::.cpu.inst 51197.223293                       # average ReadReq mshr miss latency
system.cpu.icache.ReadReq_avg_mshr_miss_latency::total 51197.223293                       # average ReadReq mshr miss latency
system.cpu.icache.prefetcher.pwrStateResidencyTicks::UNDEFINED   1083850000                       # Cumulative time (in ticks) in various power states
system.cpu.icache.tags.pwrStateResidencyTicks::UNDEFINED   1083850000                       # Cumulative time (in ticks) in various power states
system.cpu.icache.tags.tagsinuse           253.460140                       # Cycle average of tags in use
system.cpu.icache.tags.total_refs              212470                       # Total number of references to valid blocks.
system.cpu.icache.tags.sampled_refs              2337                       # Sample count of references to valid blocks.
system.cpu.icache.tags.avg_refs             90.915704                       # Average number of references to valid blocks.
system.cpu.icache.tags.warmup_cycle             66400                       # Cycle when the warmup percentage was hit.
system.cpu.icache.tags.occ_blocks::.cpu.inst   253.460140                       # Average occupied blocks per requestor
system.cpu.icache.tags.occ_percent::.cpu.inst     0.990079                       # Average percentage of cache occupancy
system.cpu.icache.tags.occ_percent::total     0.990079                       # Average percentage of cache occupancy
system.cpu.icache.tags.occ_task_id_blocks::1024          256                       # Occupied blocks per task id
system.cpu.icache.tags.age_task_id_blocks_1024::0           69                       # Occupied blocks per task id
system.cpu.icache.tags.age_task_id_blocks_1024::1          159                       # Occupied blocks per task id
system.cpu.icache.tags.age_task_id_blocks_1024::2           28                       # Occupied blocks per task id
system.cpu.icache.tags.occ_task_id_percent::1024            1                       # Percentage of cache occupancy per task id
system.cpu.icache.tags.tag_accesses            484139                       # Number of tag accesses
system.cpu.icache.tags.data_accesses           484139                       # Number of data accesses
system.cpu.dtb.walker.pwrStateResidencyTicks::UNDEFINED   1083850000                       # Cumulative time (in ticks) in various power states
system.cpu.interrupts.clk_domain.clock           6400                       # Clock period in ticks
system.cpu.itb.walker.pwrStateResidencyTicks::UNDEFINED   1083850000                       # Cumulative time (in ticks) in various power states
system.cpu.dcache.pwrStateResidencyTicks::UNDEFINED   1083850000                       # Cumulative time (in ticks) in various power states
system.cpu.dcache.demand_hits::.cpu.data       666093                       # number of demand (read+write) hits
system.cpu.dcache.demand_hits::total           666093                       # number of demand (read+write) hits
system.cpu.dcache.overall_hits::.cpu.data       666093                       # number of overall hits
system.cpu.dcache.overall_hits::total          666093                       # number of overall hits
system.cpu.dcache.demand_misses::.cpu.data        34791                       # number of demand (read+write) misses
system.cpu.dcache.demand_misses::total          34791                       # number of demand (read+write) misses
system.cpu.dcache.overall_misses::.cpu.data        34791                       # number of overall misses
system.cpu.dcache.overall_misses::total         34791                       # number of overall misses
system.cpu.dcache.demand_miss_latency::.cpu.data   1686148399                       # number of demand (read+write) miss cycles
system.cpu.dcache.demand_miss_latency::total   1686148399                       # number of demand (read+write) miss cycles
system.cpu.dcache.overall_miss_latency::.cpu.data   1686148399                       # number of overall miss cycles
system.cpu.dcache.overall_miss_latency::total   1686148399                       # number of overall miss cycles
system.cpu.dcache.demand_accesses::.cpu.data       700884                       # number of demand (read+write) accesses
system.cpu.dcache.demand_accesses::total       700884                       # number of demand (read+write) accesses
system.cpu.dcache.overall_accesses::.cpu.data       700884                       # number of overall (read+write) accesses
system.cpu.dcache.overall_accesses::total       700884                       # number of overall (read+write) accesses
system.cpu.dcache.demand_miss_rate::.cpu.data     0.049639                       # miss rate for demand accesses
system.cpu.dcache.demand_miss_rate::total     0.049639                       # miss rate for demand accesses
system.cpu.dcache.overall_miss_rate::.cpu.data     0.049639                       # miss rate for overall accesses
system.cpu.dcache.overall_miss_rate::total     0.049639                       # miss rate for overall accesses
system.cpu.dcache.demand_avg_miss_latency::.cpu.data 48465.074272                       # average overall miss latency
system.cpu.dcache.demand_avg_miss_latency::total 48465.074272                       # average overall miss latency
system.cpu.dcache.overall_avg_miss_latency::.cpu.data 48465.074272                       # average overall miss latency
system.cpu.dcache.overall_avg_miss_latency::total 48465.074272                       # average overall miss latency
system.cpu.dcache.blocked_cycles::no_mshrs        27541                       # number of cycles access was blocked
system.cpu.dcache.blocked_cycles::no_targets          138                       # number of cycles access was blocked
system.cpu.dcache.blocked::no_mshrs               744                       # number of cycles access was blocked
system.cpu.dcache.blocked::no_targets               1                       # number of cycles access was blocked
system.cpu.dcache.avg_blocked_cycles::no_mshrs    37.017473                       # average number of cycles each access was blocked
system.cpu.dcache.avg_blocked_cycles::no_targets          138                       # average number of cycles each access was blocked
system.cpu.dcache.unused_prefetches              1746                       # number of HardPF blocks evicted w/o reference
system.cpu.dcache.writebacks::.writebacks         2776                       # number of writebacks
system.cpu.dcache.writebacks::total              2776                       # number of writebacks
system.cpu.dcache.demand_mshr_hits::.cpu.data        22220                       # number of demand (read+write) MSHR hits
system.cpu.dcache.demand_mshr_hits::total        22220                       # number of demand (read+write) MSHR hits
system.cpu.dcache.overall_mshr_hits::.cpu.data        22220                       # number of overall MSHR hits
system.cpu.dcache.overall_mshr_hits::total        22220                       # number of overall MSHR hits
system.cpu.dcache.demand_mshr_misses::.cpu.data        12571                       # number of demand (read+write) MSHR misses
system.cpu.dcache.demand_mshr_misses::total        12571                       # number of demand (read+write) MSHR misses
system.cpu.dcache.overall_mshr_misses::.cpu.data        12571                       # number of overall MSHR misses
system.cpu.dcache.overall_mshr_misses::.cpu.dcache.prefetcher         4254                       # number of overall MSHR misses
system.cpu.dcache.overall_mshr_misses::total        16825                       # number of overall MSHR misses
system.cpu.dcache.demand_mshr_miss_latency::.cpu.data    576183999                       # number of demand (read+write) MSHR miss cycles
system.cpu.dcache.demand_mshr_miss_latency::total    576183999                       # number of demand (read+write) MSHR miss cycles
system.cpu.dcache.overall_mshr_miss_latency::.cpu.data    576183999                       # number of overall MSHR miss cycles
system.cpu.dcache.overall_mshr_miss_latency::.cpu.dcache.prefetcher    242752700                       # number of overall MSHR miss cycles
system.cpu.dcache.overall_mshr_miss_latency::total    818936699                       # number of overall MSHR miss cycles
system.cpu.dcache.demand_mshr_miss_rate::.cpu.data     0.017936                       # mshr miss rate for demand accesses
system.cpu.dcache.demand_mshr_miss_rate::total     0.017936                       # mshr miss rate for demand accesses
system.cpu.dcache.overall_mshr_miss_rate::.cpu.data     0.017936                       # mshr miss rate for overall accesses
system.cpu.dcache.overall_mshr_miss_rate::.cpu.dcache.prefetcher          inf                       # mshr miss rate for overall accesses
system.cpu.dcache.overall_mshr_miss_rate::total     0.024005                       # mshr miss rate for overall accesses
system.cpu.dcache.demand_avg_mshr_miss_latency::.cpu.data 45834.380638                       # average overall mshr miss latency
system.cpu.dcache.demand_avg_mshr_miss_latency::total 45834.380638                       # average overall mshr miss latency
system.cpu.dcache.overall_avg_mshr_miss_latency::.cpu.data 45834.380638                       # average overall mshr miss latency
system.cpu.dcache.overall_avg_mshr_miss_latency::.cpu.dcache.prefetcher 57064.574518                       # average overall mshr miss latency
system.cpu.dcache.overall_avg_mshr_miss_latency::total 48673.800832                       # average overall mshr miss latency
system.cpu.dcache.replacements                  15801                       # number of replacements
system.cpu.dcache.ReadReq_hits::.cpu.data       498232                       # number of ReadReq hits
system.cpu.dcache.ReadReq_hits::total          498232                       # number of ReadReq hits
system.cpu.dcache.ReadReq_misses::.cpu.data        32676                       # number of ReadReq misses
system.cpu.dcache.ReadReq_misses::total         32676                       # number of ReadReq misses
system.cpu.dcache.ReadReq_miss_latency::.cpu.data   1581330000                       # number of ReadReq miss cycles
system.cpu.dcache.ReadReq_miss_latency::total   1581330000                       # number of ReadReq miss cycles
system.cpu.dcache.ReadReq_accesses::.cpu.data       530908                       # number of ReadReq accesses(hits+misses)
system.cpu.dcache.ReadReq_accesses::total       530908                       # number of ReadReq accesses(hits+misses)
system.cpu.dcache.ReadReq_miss_rate::.cpu.data     0.061547                       # miss rate for ReadReq accesses
system.cpu.dcache.ReadReq_miss_rate::total     0.061547                       # miss rate for ReadReq accesses
system.cpu.dcache.ReadReq_avg_miss_latency::.cpu.data 48394.234300                       # average ReadReq miss latency
system.cpu.dcache.ReadReq_avg_miss_latency::total 48394.234300                       # average ReadReq miss latency
system.cpu.dcache.ReadReq_mshr_hits::.cpu.data        22184                       # number of ReadReq MSHR hits
system.cpu.dcache.ReadReq_mshr_hits::total        22184                       # number of ReadReq MSHR hits
system.cpu.dcache.ReadReq_mshr_misses::.cpu.data        10492                       # number of ReadReq MSHR misses
system.cpu.dcache.ReadReq_mshr_misses::total        10492                       # number of ReadReq MSHR misses
system.cpu.dcache.ReadReq_mshr_miss_latency::.cpu.data    474409600                       # number of ReadReq MSHR miss cycles
system.cpu.dcache.ReadReq_mshr_miss_latency::total    474409600                       # number of ReadReq MSHR miss cycles
system.cpu.dcache.ReadReq_mshr_miss_rate::.cpu.data     0.019762                       # mshr miss rate for ReadReq accesses
system.cpu.dcache.ReadReq_mshr_miss_rate::total     0.019762                       # mshr miss rate for ReadReq accesses
system.cpu.dcache.ReadReq_avg_mshr_miss_latency::.cpu.data 45216.317194                       # average ReadReq mshr miss latency
system.cpu.dcache.ReadReq_avg_mshr_miss_latency::total 45216.317194                       # average ReadReq mshr miss latency
system.cpu.dcache.WriteReq_hits::.cpu.data       167861                       # number of WriteReq hits
system.cpu.dcache.WriteReq_hits::total         167861                       # number of WriteReq hits
system.cpu.dcache.WriteReq_misses::.cpu.data         2115                       # number of WriteReq misses
system.cpu.dcache.WriteReq_misses::total         2115                       # number of WriteReq misses
system.cpu.dcache.WriteReq_miss_latency::.cpu.data    104818399                       # number of WriteReq miss cycles
system.cpu.dcache.WriteReq_miss_latency::total    104818399                       # number of WriteReq miss cycles
system.cpu.dcache.WriteReq_accesses::.cpu.data       169976                       # number of WriteReq accesses(hits+misses)
system.cpu.dcache.WriteReq_accesses::total       169976                       # number of WriteReq accesses(hits+misses)
system.cpu.dcache.WriteReq_miss_rate::.cpu.data     0.012443                       # miss rate for WriteReq accesses
system.cpu.dcache.WriteReq_miss_rate::total     0.012443                       # miss rate for WriteReq accesses
system.cpu.dcache.WriteReq_avg_miss_latency::.cpu.data 49559.526714                       # average WriteReq miss latency
system.cpu.dcache.WriteReq_avg_miss_latency::total 49559.526714                       # average WriteReq miss latency
system.cpu.dcache.WriteReq_mshr_hits::.cpu.data           36                       # number of WriteReq MSHR hits
system.cpu.dcache.WriteReq_mshr_hits::total           36                       # number of WriteReq MSHR hits
system.cpu.dcache.WriteReq_mshr_misses::.cpu.data         2079                       # number of WriteReq MSHR misses
system.cpu.dcache.WriteReq_mshr_misses::total         2079                       # number of WriteReq MSHR misses
system.cpu.dcache.WriteReq_mshr_miss_latency::.cpu.data    101774399                       # number of WriteReq MSHR miss cycles
system.cpu.dcache.WriteReq_mshr_miss_latency::total    101774399                       # number of WriteReq MSHR miss cycles
[...]
system.l2cache.overall_mshr_miss_rate::.cpu.data     0.545198                       # mshr miss rate for overall accesses
system.l2cache.overall_mshr_miss_rate::.cpu.dcache.prefetcher     0.783333                       # mshr miss rate for overall accesses
system.l2cache.overall_mshr_miss_rate::.l2cache.prefetcher          inf                       # mshr miss rate for overall accesses
system.l2cache.overall_mshr_miss_rate::total     0.266420                       # mshr miss rate for overall accesses
system.l2cache.demand_avg_mshr_miss_latency::.cpu.inst 60955.388471                       # average overall mshr miss latency
system.l2cache.demand_avg_mshr_miss_latency::.cpu.data 58509.844560                       # average overall mshr miss latency
system.l2cache.demand_avg_mshr_miss_latency::.cpu.dcache.prefetcher 58526.638298                       # average overall mshr miss latency
system.l2cache.demand_avg_mshr_miss_latency::total 60038.109546                       # average overall mshr miss latency
system.l2cache.overall_avg_mshr_miss_latency::.cpu.inst 60955.388471                       # average overall mshr miss latency
system.l2cache.overall_avg_mshr_miss_latency::.cpu.data 58509.844560                       # average overall mshr miss latency
system.l2cache.overall_avg_mshr_miss_latency::.cpu.dcache.prefetcher 58526.638298                       # average overall mshr miss latency
system.l2cache.overall_avg_mshr_miss_latency::.l2cache.prefetcher 56119.100000                       # average overall mshr miss latency
system.l2cache.overall_avg_mshr_miss_latency::total 59977.724191                       # average overall mshr miss latency
system.l2cache.replacements                       657                       # number of replacements
system.l2cache.WritebackDirty_hits::.writebacks          113                       # number of WritebackDirty hits
system.l2cache.WritebackDirty_hits::total          113                       # number of WritebackDirty hits
system.l2cache.WritebackDirty_accesses::.writebacks          113                       # number of WritebackDirty accesses(hits+misses)
system.l2cache.WritebackDirty_accesses::total          113                       # number of WritebackDirty accesses(hits+misses)
system.l2cache.CleanEvict_mshr_misses::.writebacks           26                       # number of CleanEvict MSHR misses
system.l2cache.CleanEvict_mshr_misses::total           26                       # number of CleanEvict MSHR misses
system.l2cache.CleanEvict_mshr_miss_rate::.writebacks          inf                       # mshr miss rate for CleanEvict accesses
system.l2cache.CleanEvict_mshr_miss_rate::total          inf                       # mshr miss rate for CleanEvict accesses
system.l2cache.HardPFReq_mshr_misses::.l2cache.prefetcher           10                       # number of HardPFReq MSHR misses
system.l2cache.HardPFReq_mshr_misses::total           10                       # number of HardPFReq MSHR misses
system.l2cache.HardPFReq_mshr_miss_latency::.l2cache.prefetcher       561191                       # number of HardPFReq MSHR miss cycles
system.l2cache.HardPFReq_mshr_miss_latency::total       561191                       # number of HardPFReq MSHR miss cycles
system.l2cache.HardPFReq_mshr_miss_rate::.l2cache.prefetcher          inf                       # mshr miss rate for HardPFReq accesses
system.l2cache.HardPFReq_mshr_miss_rate::total          inf                       # mshr miss rate for HardPFReq accesses
system.l2cache.HardPFReq_avg_mshr_miss_latency::.l2cache.prefetcher 56119.100000                       # average HardPFReq mshr miss latency
system.l2cache.HardPFReq_avg_mshr_miss_latency::total 56119.100000                       # average HardPFReq mshr miss latency
system.l2cache.UpgradeReq_hits::.cpu.data            1                       # number of UpgradeReq hits
system.l2cache.UpgradeReq_hits::total               1                       # number of UpgradeReq hits
system.l2cache.UpgradeReq_accesses::.cpu.data            1                       # number of UpgradeReq accesses(hits+misses)
system.l2cache.UpgradeReq_accesses::total            1                       # number of UpgradeReq accesses(hits+misses)
system.l2cache.ReadExReq_hits::.cpu.data            7                       # number of ReadExReq hits
system.l2cache.ReadExReq_hits::total                7                       # number of ReadExReq hits
system.l2cache.ReadExReq_misses::.cpu.data           31                       # number of ReadExReq misses
system.l2cache.ReadExReq_misses::total             31                       # number of ReadExReq misses
system.l2cache.ReadExReq_miss_latency::.cpu.data      2096000                       # number of ReadExReq miss cycles
system.l2cache.ReadExReq_miss_latency::total      2096000                       # number of ReadExReq miss cycles
system.l2cache.ReadExReq_accesses::.cpu.data           38                       # number of ReadExReq accesses(hits+misses)
system.l2cache.ReadExReq_accesses::total           38                       # number of ReadExReq accesses(hits+misses)
system.l2cache.ReadExReq_miss_rate::.cpu.data     0.815789                       # miss rate for ReadExReq accesses
system.l2cache.ReadExReq_miss_rate::total     0.815789                       # miss rate for ReadExReq accesses
system.l2cache.ReadExReq_avg_miss_latency::.cpu.data 67612.903226                       # average ReadExReq miss latency
system.l2cache.ReadExReq_avg_miss_latency::total 67612.903226                       # average ReadExReq miss latency
system.l2cache.ReadExReq_mshr_misses::.cpu.data           31                       # number of ReadExReq MSHR misses
system.l2cache.ReadExReq_mshr_misses::total           31                       # number of ReadExReq MSHR misses
system.l2cache.ReadExReq_mshr_miss_latency::.cpu.data      1848000                       # number of ReadExReq MSHR miss cycles
system.l2cache.ReadExReq_mshr_miss_latency::total      1848000                       # number of ReadExReq MSHR miss cycles
system.l2cache.ReadExReq_mshr_miss_rate::.cpu.data     0.815789                       # mshr miss rate for ReadExReq accesses
system.l2cache.ReadExReq_mshr_miss_rate::total     0.815789                       # mshr miss rate for ReadExReq accesses
system.l2cache.ReadExReq_avg_mshr_miss_latency::.cpu.data 59612.903226                       # average ReadExReq mshr miss latency
system.l2cache.ReadExReq_avg_mshr_miss_latency::total 59612.903226                       # average ReadExReq mshr miss latency
system.l2cache.ReadSharedReq_hits::.cpu.inst         1623                       # number of ReadSharedReq hits
system.l2cache.ReadSharedReq_hits::.cpu.data          153                       # number of ReadSharedReq hits
system.l2cache.ReadSharedReq_hits::.cpu.dcache.prefetcher           13                       # number of ReadSharedReq hits
system.l2cache.ReadSharedReq_hits::total         1789                       # number of ReadSharedReq hits
system.l2cache.ReadSharedReq_misses::.cpu.inst          399                       # number of ReadSharedReq misses
system.l2cache.ReadSharedReq_misses::.cpu.data          163                       # number of ReadSharedReq misses
system.l2cache.ReadSharedReq_misses::.cpu.dcache.prefetcher           47                       # number of ReadSharedReq misses
system.l2cache.ReadSharedReq_misses::total          609                       # number of ReadSharedReq misses
system.l2cache.ReadSharedReq_miss_latency::.cpu.inst     27505200                       # number of ReadSharedReq miss cycles
system.l2cache.ReadSharedReq_miss_latency::.cpu.data     10797200                       # number of ReadSharedReq miss cycles
system.l2cache.ReadSharedReq_miss_latency::.cpu.dcache.prefetcher      3126752                       # number of ReadSharedReq miss cycles
system.l2cache.ReadSharedReq_miss_latency::total     41429152                       # number of ReadSharedReq miss cycles
system.l2cache.ReadSharedReq_accesses::.cpu.inst         2022                       # number of ReadSharedReq accesses(hits+misses)
system.l2cache.ReadSharedReq_accesses::.cpu.data          316                       # number of ReadSharedReq accesses(hits+misses)
system.l2cache.ReadSharedReq_accesses::.cpu.dcache.prefetcher           60                       # number of ReadSharedReq accesses(hits+misses)
system.l2cache.ReadSharedReq_accesses::total         2398                       # number of ReadSharedReq accesses(hits+misses)
system.l2cache.ReadSharedReq_miss_rate::.cpu.inst     0.197329                       # miss rate for ReadSharedReq accesses
system.l2cache.ReadSharedReq_miss_rate::.cpu.data     0.515823                       # miss rate for ReadSharedReq accesses
system.l2cache.ReadSharedReq_miss_rate::.cpu.dcache.prefetcher     0.783333                       # miss rate for ReadSharedReq accesses
system.l2cache.ReadSharedReq_miss_rate::total     0.253962                       # miss rate for ReadSharedReq accesses
system.l2cache.ReadSharedReq_avg_miss_latency::.cpu.inst 68935.338346                       # average ReadSharedReq miss latency
system.l2cache.ReadSharedReq_avg_miss_latency::.cpu.data 66240.490798                       # average ReadSharedReq miss latency
system.l2cache.ReadSharedReq_avg_miss_latency::.cpu.dcache.prefetcher 66526.638298                       # average ReadSharedReq miss latency
system.l2cache.ReadSharedReq_avg_miss_latency::total 68028.164204                       # average ReadSharedReq miss latency
system.l2cache.ReadSharedReq_mshr_hits::.cpu.data            1                       # number of ReadSharedReq MSHR hits
system.l2cache.ReadSharedReq_mshr_hits::total            1                       # number of ReadSharedReq MSHR hits
system.l2cache.ReadSharedReq_mshr_misses::.cpu.inst          399                       # number of ReadSharedReq MSHR misses
system.l2cache.ReadSharedReq_mshr_misses::.cpu.data          162                       # number of ReadSharedReq MSHR misses
system.l2cache.ReadSharedReq_mshr_misses::.cpu.dcache.prefetcher           47                       # number of ReadSharedReq MSHR misses
system.l2cache.ReadSharedReq_mshr_misses::total          608                       # number of ReadSharedReq MSHR misses
system.l2cache.ReadSharedReq_mshr_miss_latency::.cpu.inst     24321200                       # number of ReadSharedReq MSHR miss cycles
system.l2cache.ReadSharedReq_mshr_miss_latency::.cpu.data      9444400                       # number of ReadSharedReq MSHR miss cycles
system.l2cache.ReadSharedReq_mshr_miss_latency::.cpu.dcache.prefetcher      2750752                       # number of ReadSharedReq MSHR miss cycles
system.l2cache.ReadSharedReq_mshr_miss_latency::total     36516352                       # number of ReadSharedReq MSHR miss cycles
system.l2cache.ReadSharedReq_mshr_miss_rate::.cpu.inst     0.197329                       # mshr miss rate for ReadSharedReq accesses
system.l2cache.ReadSharedReq_mshr_miss_rate::.cpu.data     0.512658                       # mshr miss rate for ReadSharedReq accesses
system.l2cache.ReadSharedReq_mshr_miss_rate::.cpu.dcache.prefetcher     0.783333                       # mshr miss rate for ReadSharedReq accesses
system.l2cache.ReadSharedReq_mshr_miss_rate::total     0.253545                       # mshr miss rate for ReadSharedReq accesses
system.l2cache.ReadSharedReq_avg_mshr_miss_latency::.cpu.inst 60955.388471                       # average ReadSharedReq mshr miss latency
system.l2cache.ReadSharedReq_avg_mshr_miss_latency::.cpu.data 58298.765432                       # average ReadSharedReq mshr miss latency
system.l2cache.ReadSharedReq_avg_mshr_miss_latency::.cpu.dcache.prefetcher 58526.638298                       # average ReadSharedReq mshr miss latency
system.l2cache.ReadSharedReq_avg_mshr_miss_latency::total 60059.789474                       # average ReadSharedReq mshr miss latency
system.l2cache.prefetcher.pwrStateResidencyTicks::UNDEFINED    133526400                       # Cumulative time (in ticks) in various power states
system.l2cache.tags.pwrStateResidencyTicks::UNDEFINED    133526400                       # Cumulative time (in ticks) in various power states
system.l2cache.tags.tagsinuse                    4096                       # Cycle average of tags in use
system.l2cache.tags.total_refs                  17414                       # Total number of references to valid blocks.
system.l2cache.tags.sampled_refs                 4753                       # Sample count of references to valid blocks.
system.l2cache.tags.avg_refs                 3.663791                       # Average number of references to valid blocks.
system.l2cache.tags.warmup_cycle                    0                       # Cycle when the warmup percentage was hit.
system.l2cache.tags.occ_blocks::.writebacks    35.738596                       # Average occupied blocks per requestor
system.l2cache.tags.occ_blocks::.cpu.inst  1121.458146                       # Average occupied blocks per requestor
system.l2cache.tags.occ_blocks::.cpu.data  1846.424170                       # Average occupied blocks per requestor
system.l2cache.tags.occ_blocks::.cpu.dcache.prefetcher   939.284195                       # Average occupied blocks per requestor
system.l2cache.tags.occ_blocks::.l2cache.prefetcher   153.094894                       # Average occupied blocks per requestor
system.l2cache.tags.occ_percent::.writebacks     0.008725                       # Average percentage of cache occupancy
system.l2cache.tags.occ_percent::.cpu.inst     0.273793                       # Average percentage of cache occupancy
system.l2cache.tags.occ_percent::.cpu.data     0.450787                       # Average percentage of cache occupancy
system.l2cache.tags.occ_percent::.cpu.dcache.prefetcher     0.229317                       # Average percentage of cache occupancy
system.l2cache.tags.occ_percent::.l2cache.prefetcher     0.037377                       # Average percentage of cache occupancy
system.l2cache.tags.occ_percent::total       1.000000                       # Average percentage of cache occupancy
system.l2cache.tags.occ_task_id_blocks::1022         1022                       # Occupied blocks per task id
system.l2cache.tags.occ_task_id_blocks::1024         3074                       # Occupied blocks per task id
system.l2cache.tags.age_task_id_blocks_1022::0           11                       # Occupied blocks per task id
system.l2cache.tags.age_task_id_blocks_1022::1           21                       # Occupied blocks per task id
system.l2cache.tags.age_task_id_blocks_1022::2          962                       # Occupied blocks per task id
system.l2cache.tags.age_task_id_blocks_1022::3           28                       # Occupied blocks per task id
system.l2cache.tags.age_task_id_blocks_1024::0          171                       # Occupied blocks per task id
system.l2cache.tags.age_task_id_blocks_1024::1          155                       # Occupied blocks per task id
system.l2cache.tags.age_task_id_blocks_1024::2         2618                       # Occupied blocks per task id
system.l2cache.tags.age_task_id_blocks_1024::3          130                       # Occupied blocks per task id
system.l2cache.tags.occ_task_id_percent::1022     0.249512                       # Percentage of cache occupancy per task id
system.l2cache.tags.occ_task_id_percent::1024     0.750488                       # Percentage of cache occupancy per task id
system.l2cache.tags.tag_accesses                39601                       # Number of tag accesses
system.l2cache.tags.data_accesses               39601                       # Number of data accesses
system.mem_ctrl.pwrStateResidencyTicks::UNDEFINED    133526400                       # Cumulative time (in ticks) in various power states
system.mem_ctrl.bytes_read::.cpu.inst           25472                       # Number of bytes read from this memory
system.mem_ctrl.bytes_read::.cpu.data           12352                       # Number of bytes read from this memory
system.mem_ctrl.bytes_read::.cpu.dcache.prefetcher         3008                       # Number of bytes read from this memory
system.mem_ctrl.bytes_read::.l2cache.prefetcher          640                       # Number of bytes read from this memory
system.mem_ctrl.bytes_read::total               41472                       # Number of bytes read from this memory
system.mem_ctrl.bytes_inst_read::.cpu.inst        25472                       # Number of instructions bytes read from this memory
system.mem_ctrl.bytes_inst_read::total          25472                       # Number of instructions bytes read from this memory
system.mem_ctrl.bytes_written::.writebacks         2368                       # Number of bytes written to this memory
system.mem_ctrl.bytes_written::total             2368                       # Number of bytes written to this memory
system.mem_ctrl.num_reads::.cpu.inst              398                       # Number of read requests responded to by this memory
system.mem_ctrl.num_reads::.cpu.data              193                       # Number of read requests responded to by this memory
system.mem_ctrl.num_reads::.cpu.dcache.prefetcher           47                       # Number of read requests responded to by this memory
system.mem_ctrl.num_reads::.l2cache.prefetcher           10                       # Number of read requests responded to by this memory
system.mem_ctrl.num_reads::total                  648                       # Number of read requests responded to by this memory
system.mem_ctrl.num_writes::.writebacks            37                       # Number of write requests responded to by this memory
system.mem_ctrl.num_writes::total                  37                       # Number of write requests responded to by this memory
system.mem_ctrl.bw_read::.cpu.inst          190763774                       # Total read bandwidth from this memory (bytes/s)
system.mem_ctrl.bw_read::.cpu.data           92506051                       # Total read bandwidth from this memory (bytes/s)
system.mem_ctrl.bw_read::.cpu.dcache.prefetcher     22527380                       # Total read bandwidth from this memory (bytes/s)
system.mem_ctrl.bw_read::.l2cache.prefetcher      4793060                       # Total read bandwidth from this memory (bytes/s)
system.mem_ctrl.bw_read::total              310590265                       # Total read bandwidth from this memory (bytes/s)
system.mem_ctrl.bw_inst_read::.cpu.inst     190763774                       # Instruction read bandwidth from this memory (bytes/s)
system.mem_ctrl.bw_inst_read::total         190763774                       # Instruction read bandwidth from this memory (bytes/s)
system.mem_ctrl.bw_write::.writebacks        17734321                       # Write bandwidth from this memory (bytes/s)
system.mem_ctrl.bw_write::total              17734321                       # Write bandwidth from this memory (bytes/s)
system.mem_ctrl.bw_total::.writebacks        17734321                       # Total bandwidth to/from this memory (bytes/s)
system.mem_ctrl.bw_total::.cpu.inst         190763774                       # Total bandwidth to/from this memory (bytes/s)
system.mem_ctrl.bw_total::.cpu.data          92506051                       # Total bandwidth to/from this memory (bytes/s)
system.mem_ctrl.bw_total::.cpu.dcache.prefetcher     22527380                       # Total bandwidth to/from this memory (bytes/s)
system.mem_ctrl.bw_total::.l2cache.prefetcher      4793060                       # Total bandwidth to/from this memory (bytes/s)
system.mem_ctrl.bw_total::total             328324586                       # Total bandwidth to/from this memory (bytes/s)

---------- End Simulation Statistics   ----------
