
---------- Begin Simulation Statistics ----------
final_tick                                 1143899200                       # Number of ticks from beginning of simulation (restored from checkpoints and never reset)
host_inst_rate                                 171244                       # Simulator instruction rate (inst/s)
host_mem_usage                                4409904                       # Number of bytes of host memory used
host_op_rate                                   300438                       # Simulator op (including micro ops) rate (op/s)
host_seconds                                    12.70                       # Real time elapsed on the host
host_tick_rate                               90071013                       # Simulator tick rate (ticks/s)
sim_freq                                 1000000000000                       # Frequency of simulated ticks
sim_insts                                     2174781                       # Number of instructions simulated
sim_ops                                       3815555                       # Number of ops (including micro ops) simulated
sim_seconds                                  0.001144                       # Number of seconds simulated
sim_ticks                                  1143899200                       # Number of ticks simulated
system.cpu.branchPred.BTBCorrect                    0                       # Number of correct BTB predictions (this stat may not work properly.
system.cpu.branchPred.BTBHitPct              0.000000                       # BTB Hit Percentage
system.cpu.branchPred.BTBHits                       0                       # Number of BTB hits
system.cpu.branchPred.BTBLookups               468320                       # Number of BTB lookups
system.cpu.branchPred.RASInCorrect                 21                       # Number of incorrect RAS predictions.
system.cpu.branchPred.condIncorrect             25505                       # Number of conditional branches incorrect
system.cpu.branchPred.condPredicted            491304                       # Number of conditional branches predicted
system.cpu.branchPred.indirectHits             252782                       # Number of indirect target hits.
system.cpu.branchPred.indirectLookups          468320                       # Number of indirect predictor lookups.
system.cpu.branchPred.indirectMisses           215538                       # Number of indirect misses.
system.cpu.branchPred.lookups                  523803                       # Number of BP lookups
system.cpu.branchPred.usedRAS                   14415                       # Number of times the RAS was used to get a target.
system.cpu.branchPredindirectMispredicted        13206                       # Number of mispredicted indirect branches.
system.cpu.cc_regfile_reads                   2473769                       # number of cc regfile reads
system.cpu.cc_regfile_writes                  1976644                       # number of cc regfile writes
system.cpu.commit.amos                              0                       # Number of atomic instructions committed
system.cpu.commit.branchMispredicts             25627                       # The number of times a branch was mispredicted
system.cpu.commit.branches                     374148                       # Number of branches committed
system.cpu.commit.bw_lim_events                639066                       # number cycles where commit BW limit reached
system.cpu.commit.commitNonSpecStalls             852                       # The number of times commit has been forced to stall to communicate backwards
system.cpu.commit.commitSquashedInsts          916569                       # The number of squashed insts skipped by commit
system.cpu.commit.committedInsts              2174781                       # Number of instructions committed
system.cpu.commit.committedOps                3815555                       # Number of ops (including micro ops) committed
system.cpu.commit.committed_per_cycle::samples      2440088                       # Number of insts commited each cycle
system.cpu.commit.committed_per_cycle::mean     1.563696                       # Number of insts commited each cycle
system.cpu.commit.committed_per_cycle::stdev     1.730817                       # Number of insts commited each cycle
system.cpu.commit.committed_per_cycle::underflows            0      0.00%      0.00% # Number of insts commited each cycle
system.cpu.commit.committed_per_cycle::0      1197690     49.08%     49.08% # Number of insts commited each cycle
system.cpu.commit.committed_per_cycle::1       187340      7.68%     56.76% # Number of insts commited each cycle
system.cpu.commit.committed_per_cycle::2       176025      7.21%     63.98% # Number of insts commited each cycle
system.cpu.commit.committed_per_cycle::3       239967      9.83%     73.81% # Number of insts commited each cycle
system.cpu.commit.committed_per_cycle::4       639066     26.19%    100.00% # Number of insts commited each cycle
system.cpu.commit.committed_per_cycle::overflows            0      0.00%    100.00% # Number of insts commited each cycle
system.cpu.commit.committed_per_cycle::min_value            0                       # Number of insts commited each cycle
system.cpu.commit.committed_per_cycle::max_value            4                       # Number of insts commited each cycle
system.cpu.commit.committed_per_cycle::total      2440088                       # Number of insts commited each cycle
system.cpu.commit.fp_insts                      75825                       # Number of committed floating point instructions.
system.cpu.commit.function_calls                12613                       # Number of function calls committed.
system.cpu.commit.int_insts                   3759456                       # Number of committed integer instructions.
system.cpu.commit.loads                        533654                       # Number of loads committed
system.cpu.commit.membars                           1                       # Number of memory barriers committed
system.cpu.commit.op_class_0::No_OpClass        20795      0.55%      0.55% # Class of committed instruction
system.cpu.commit.op_class_0::IntAlu          2989449     78.35%     78.89% # Class of committed instruction
system.cpu.commit.op_class_0::IntMult             429      0.01%     78.91% # Class of committed instruction
system.cpu.commit.op_class_0::IntDiv            38022      1.00%     79.90% # Class of committed instruction
system.cpu.commit.op_class_0::FloatAdd           2996      0.08%     79.98% # Class of committed instruction
system.cpu.commit.op_class_0::FloatCmp              0      0.00%     79.98% # Class of committed instruction
system.cpu.commit.op_class_0::FloatCvt           1376      0.04%     80.02% # Class of committed instruction
system.cpu.commit.op_class_0::FloatMult             0      0.00%     80.02% # Class of committed instruction
system.cpu.commit.op_class_0::FloatMultAcc            0      0.00%     80.02% # Class of committed instruction
system.cpu.commit.op_class_0::FloatDiv              0      0.00%     80.02% # Class of committed instruction
system.cpu.commit.op_class_0::FloatMisc             0      0.00%     80.02% # Class of committed instruction
system.cpu.commit.op_class_0::FloatSqrt             0      0.00%     80.02% # Class of committed instruction
system.cpu.commit.op_class_0::SimdAdd            6346      0.17%     80.18% # Class of committed instruction
system.cpu.commit.op_class_0::SimdAddAcc            0      0.00%     80.18% # Class of committed instruction
system.cpu.commit.op_class_0::SimdAlu           11415      0.30%     80.48% # Class of committed instruction
system.cpu.commit.op_class_0::SimdCmp               0      0.00%     80.48% # Class of committed instruction
system.cpu.commit.op_class_0::SimdCvt           12434      0.33%     80.81% # Class of committed instruction
system.cpu.commit.op_class_0::SimdMisc           6715      0.18%     80.98% # Class of committed instruction
system.cpu.commit.op_class_0::SimdMult              0      0.00%     80.98% # Class of committed instruction
system.cpu.commit.op_class_0::SimdMultAcc            0      0.00%     80.98% # Class of committed instruction
system.cpu.commit.op_class_0::SimdShift          1273      0.03%     81.02% # Class of committed instruction
system.cpu.commit.op_class_0::SimdShiftAcc            0      0.00%     81.02% # Class of committed instruction
system.cpu.commit.op_class_0::SimdDiv               0      0.00%     81.02% # Class of committed instruction
system.cpu.commit.op_class_0::SimdSqrt              0      0.00%     81.02% # Class of committed instruction
system.cpu.commit.op_class_0::SimdFloatAdd            0      0.00%     81.02% # Class of committed instruction
system.cpu.commit.op_class_0::SimdFloatAlu            0      0.00%     81.02% # Class of committed instruction
system.cpu.commit.op_class_0::SimdFloatCmp            0      0.00%     81.02% # Class of committed instruction
system.cpu.commit.op_class_0::SimdFloatCvt            0      0.00%     81.02% # Class of committed instruction
system.cpu.commit.op_class_0::SimdFloatDiv            0      0.00%     81.02% # Class of committed instruction
system.cpu.commit.op_class_0::SimdFloatMisc            0      0.00%     81.02% # Class of committed instruction
system.cpu.commit.op_class_0::SimdFloatMult            0      0.00%     81.02% # Class of committed instruction
system.cpu.commit.op_class_0::SimdFloatMultAcc            0      0.00%     81.02% # Class of committed instruction
system.cpu.commit.op_class_0::SimdFloatSqrt            0      0.00%     81.02% # Class of committed instruction
system.cpu.commit.op_class_0::SimdReduceAdd            0      0.00%     81.02% # Class of committed instruction
system.cpu.commit.op_class_0::SimdReduceAlu            0      0.00%     81.02% # Class of committed instruction
system.cpu.commit.op_class_0::SimdReduceCmp            0      0.00%     81.02% # Class of committed instruction
system.cpu.commit.op_class_0::SimdFloatReduceAdd            0      0.00%     81.02% # Class of committed instruction
system.cpu.commit.op_class_0::SimdFloatReduceCmp            0      0.00%     81.02% # Class of committed instruction
system.cpu.commit.op_class_0::SimdAes               0      0.00%     81.02% # Class of committed instruction
system.cpu.commit.op_class_0::SimdAesMix            0      0.00%     81.02% # Class of committed instruction
system.cpu.commit.op_class_0::SimdSha1Hash            0      0.00%     81.02% # Class of committed instruction
system.cpu.commit.op_class_0::SimdSha1Hash2            0      0.00%     81.02% # Class of committed instruction
system.cpu.commit.op_class_0::SimdSha256Hash            0      0.00%     81.02% # Class of committed instruction
system.cpu.commit.op_class_0::SimdSha256Hash2            0      0.00%     81.02% # Class of committed instruction
system.cpu.commit.op_class_0::SimdShaSigma2            0      0.00%     81.02% # Class of committed instruction
system.cpu.commit.op_class_0::SimdShaSigma3            0      0.00%     81.02% # Class of committed instruction
system.cpu.commit.op_class_0::SimdPredAlu            0      0.00%     81.02% # Class of committed instruction
system.cpu.commit.op_class_0::MemRead          513766     13.47%     94.48% # Class of committed instruction
system.cpu.commit.op_class_0::MemWrite         178152      4.67%     99.15% # Class of committed instruction
system.cpu.commit.op_class_0::FloatMemRead        19888      0.52%     99.67% # Class of committed instruction
system.cpu.commit.op_class_0::FloatMemWrite        12499      0.33%    100.00% # Class of committed instruction
system.cpu.commit.op_class_0::IprAccess             0      0.00%    100.00% # Class of committed instruction
system.cpu.commit.op_class_0::InstPrefetch            0      0.00%    100.00% # Class of committed instruction
system.cpu.commit.op_class_0::total           3815555                       # Class of committed instruction
system.cpu.commit.refs                         724305                       # Number of memory references committed
system.cpu.commit.swp_count                         0                       # Number of s/w prefetches committed
system.cpu.commit.vec_insts                         0                       # Number of committed Vector instructions.
system.cpu.committedInsts                     2174781                       # Number of Instructions Simulated
system.cpu.committedOps                       3815555                       # Number of Ops (including micro ops) Simulated
system.cpu.cpi                               1.314960                       # CPI: Cycles Per Instruction
system.cpu.cpi_total                         1.314960                       # CPI: Total CPI of All Threads
system.cpu.dcache.prefetcher.num_hwpf_issued         8271                       # number of hwpf issued
system.cpu.dcache.prefetcher.pfBufferHit        33096                       # number of redundant prefetches already in prefetch queue
system.cpu.dcache.prefetcher.pfIdentified        48648                       # number of prefetch candidates identified
system.cpu.dcache.prefetcher.pfInCache              0                       # number of redundant prefetches already in cache/mshr dropped
system.cpu.dcache.prefetcher.pfRemovedFull            0                       # number of prefetches dropped due to prefetch queue size
system.cpu.dcache.prefetcher.pfSpanPage          4624                       # number of prefetches that crossed the page
system.cpu.decode.BlockedCycles               1041963                       # Number of cycles decode is blocked
system.cpu.decode.DecodedInsts                4957231                       # Number of instructions handled by decode
system.cpu.decode.IdleCycles                   319986                       # Number of cycles decode is idle
system.cpu.decode.RunCycles                   1214182                       # Number of cycles decode is running
system.cpu.decode.SquashCycles                  25692                       # Number of cycles decode is squashing
system.cpu.decode.UnblockCycles                 88214                       # Number of cycles decode is unblocking
system.cpu.dtb.rdAccesses                      619357                       # TLB accesses on read requests
system.cpu.dtb.rdMisses                          2118                       # TLB misses on read requests
system.cpu.dtb.wrAccesses                      210703                       # TLB accesses on write requests
system.cpu.dtb.wrMisses                           155                       # TLB misses on write requests
system.cpu.fetch.Branches                      523803                       # Number of branches that fetch encountered
system.cpu.fetch.CacheLines                    262457                       # Number of cache lines fetched
system.cpu.fetch.Cycles                       2305328                       # Number of cycles fetch has run and was not squashing or blocked
system.cpu.fetch.IcacheSquashes                  5316                       # Number of outstanding Icache misses that were squashed
system.cpu.fetch.IcacheWaitRetryStallCycles           10                       # Number of stall cycles due to full MSHR
system.cpu.fetch.Insts                        2962219                       # Number of instructions fetch has processed
system.cpu.fetch.MiscStallCycles                  145                       # Number of cycles fetch has spent waiting on interrupts, or bad addresses, or out of MSHRs
system.cpu.fetch.PendingQuiesceStallCycles           16                       # Number of stall cycles due to pending quiesce instructions
system.cpu.fetch.PendingTrapStallCycles           870                       # Number of stall cycles due to pending traps
system.cpu.fetch.SquashCycles                   51384                       # Number of cycles fetch has spent squashing
system.cpu.fetch.branchRate                  0.183164                       # Number of branch fetches per cycle
system.cpu.fetch.icacheStallCycles             357976                       # Number of cycles fetch is stalled on an Icache miss
system.cpu.fetch.predictedBranches             267197                       # Number of branches that fetch has predicted taken
system.cpu.fetch.rate                        1.035832                       # Number of inst fetches per cycle
system.cpu.fetch.rateDist::samples            2690037                       # Number of instructions fetched each cycle (Total)
system.cpu.fetch.rateDist::mean              1.947190                       # Number of instructions fetched each cycle (Total)
system.cpu.fetch.rateDist::stdev             1.928103                       # Number of instructions fetched each cycle (Total)
system.cpu.fetch.rateDist::underflows               0      0.00%      0.00% # Number of instructions fetched each cycle (Total)
system.cpu.fetch.rateDist::0                  1267229     47.11%     47.11% # Number of instructions fetched each cycle (Total)
system.cpu.fetch.rateDist::1                    79760      2.97%     50.07% # Number of instructions fetched each cycle (Total)
system.cpu.fetch.rateDist::2                    64438      2.40%     52.47% # Number of instructions fetched each cycle (Total)
system.cpu.fetch.rateDist::3                    85063      3.16%     55.63% # Number of instructions fetched each cycle (Total)
system.cpu.fetch.rateDist::4                  1193547     44.37%    100.00% # Number of instructions fetched each cycle (Total)
system.cpu.fetch.rateDist::overflows                0      0.00%    100.00% # Number of instructions fetched each cycle (Total)
system.cpu.fetch.rateDist::min_value                0                       # Number of instructions fetched each cycle (Total)
system.cpu.fetch.rateDist::max_value                4                       # Number of instructions fetched each cycle (Total)
system.cpu.fetch.rateDist::total              2690037                       # Number of instructions fetched each cycle (Total)
system.cpu.fp_regfile_reads                    124249                       # number of floating regfile reads
system.cpu.fp_regfile_writes                    68617                       # number of floating regfile writes
system.cpu.fuPool.fu_ticks_busy::IntALU(0)    228855600                       # Total ticks fu was busy
system.cpu.fuPool.fu_ticks_busy::IntALU(1)    228855600                       # Total ticks fu was busy
system.cpu.fuPool.fu_ticks_busy::IntALU(2)    228855600                       # Total ticks fu was busy
system.cpu.fuPool.fu_ticks_busy::IntALU(3)    228855200                       # Total ticks fu was busy
system.cpu.fuPool.fu_ticks_busy::IntALU(4)    228855200                       # Total ticks fu was busy
system.cpu.fuPool.fu_ticks_busy::IntALU(5)    228855200                       # Total ticks fu was busy
system.cpu.fuPool.fu_ticks_busy::IntMultDiv(0)      8498400                       # Total ticks fu was busy
system.cpu.fuPool.fu_ticks_busy::IntMultDiv(1)      8498000                       # Total ticks fu was busy
system.cpu.fuPool.fu_ticks_busy::FP_ALU(0)       608800                       # Total ticks fu was busy
system.cpu.fuPool.fu_ticks_busy::FP_ALU(1)       608800                       # Total ticks fu was busy
system.cpu.fuPool.fu_ticks_busy::FP_ALU(2)       608400                       # Total ticks fu was busy
system.cpu.fuPool.fu_ticks_busy::FP_ALU(3)       608000                       # Total ticks fu was busy
system.cpu.fuPool.fu_ticks_busy::FP_MultDiv(0)            0                       # Total ticks fu was busy
system.cpu.fuPool.fu_ticks_busy::FP_MultDiv(1)            0                       # Total ticks fu was busy
system.cpu.fuPool.fu_ticks_busy::SIMD_Unit(0)      4548400                       # Total ticks fu was busy
system.cpu.fuPool.fu_ticks_busy::SIMD_Unit(1)      4645600                       # Total ticks fu was busy
system.cpu.fuPool.fu_ticks_busy::SIMD_Unit(2)      4758800                       # Total ticks fu was busy
system.cpu.fuPool.fu_ticks_busy::SIMD_Unit(3)      4659200                       # Total ticks fu was busy
system.cpu.fuPool.fu_ticks_busy::PredALU(0)            0                       # Total ticks fu was busy
system.cpu.fuPool.fu_ticks_busy::RdWrPort(0)     84586000                       # Total ticks fu was busy
system.cpu.fuPool.fu_ticks_busy::RdWrPort(1)     84546400                       # Total ticks fu was busy
system.cpu.fuPool.fu_ticks_busy::RdWrPort(2)     84570800                       # Total ticks fu was busy
system.cpu.fuPool.fu_ticks_busy::RdWrPort(3)     84539200                       # Total ticks fu was busy
system.cpu.fuPool.fu_ticks_busy::IprPort(0)            0                       # Total ticks fu was busy
system.cpu.fuPool.fu_ticks_busy::total     1749417200                       # Total ticks fu was busy
system.cpu.icache.prefetcher.num_hwpf_issued            0                       # number of hwpf issued
system.cpu.icache.prefetcher.pfBufferHit            0                       # number of redundant prefetches already in prefetch queue
system.cpu.icache.prefetcher.pfIdentified            0                       # number of prefetch candidates identified
system.cpu.icache.prefetcher.pfInCache              0                       # number of redundant prefetches already in cache/mshr dropped
system.cpu.icache.prefetcher.pfRemovedFull            0                       # number of prefetches dropped due to prefetch queue size
system.cpu.icache.prefetcher.pfSpanPage             0                       # number of prefetches that crossed the page
system.cpu.idleCycles                          169712                       # Total number of cycles that the CPU has spent unscheduled due to idling
system.cpu.iew.branchMispredicts                30149                       # Number of branch mispredicts detected at execute
system.cpu.iew.exec_branches                   405179                       # Number of branches executed
system.cpu.iew.exec_nop                             0                       # number of nop insts executed
system.cpu.iew.exec_rate                     1.525951                       # Inst execution rate
system.cpu.iew.exec_refs                       831727                       # number of memory reference insts executed
system.cpu.iew.exec_stores                     210688                       # Number of stores executed
system.cpu.iew.exec_swp                             0                       # number of swp insts executed
system.cpu.iew.iewBlockCycles                  712730                       # Number of cycles IEW is blocking
system.cpu.iew.iewDispLoadInsts                653992                       # Number of dispatched load instructions
system.cpu.iew.iewDispNonSpecInsts               1319                       # Number of dispatched non-speculative instructions
system.cpu.iew.iewDispSquashedInsts               548                       # Number of squashed instructions skipped by dispatch
system.cpu.iew.iewDispStoreInsts               222451                       # Number of dispatched store instructions
system.cpu.iew.iewDispatchedInsts             4732061                       # Number of instructions dispatched to IQ
system.cpu.iew.iewExecLoadInsts                621039                       # Number of load instructions executed
system.cpu.iew.iewExecSquashedInsts             37123                       # Number of squashed instructions skipped in execute
system.cpu.iew.iewExecutedInsts               4363837                       # Number of executed instructions
system.cpu.iew.iewIQFullEvents                   3342                       # Number of times the IQ has become full, causing a stall
system.cpu.iew.iewIdleCycles                        0                       # Number of cycles IEW is idle
system.cpu.iew.iewLSQFullEvents                  9370                       # Number of times the LSQ has become full, causing a stall
system.cpu.iew.iewSquashCycles                  25692                       # Number of cycles IEW is squashing
system.cpu.iew.iewUnblockCycles                 15656                       # Number of cycles IEW is unblocking
system.cpu.iew.lsq.thread0.blockedLoads             0                       # Number of blocked loads due to partial load-store forwarding
system.cpu.iew.lsq.thread0.cacheBlocked           582                       # Number of times an access to memory failed due to the cache being blocked
system.cpu.iew.lsq.thread0.forwLoads            40590                       # Number of loads that had data forwarded from stores
system.cpu.iew.lsq.thread0.ignoredResponses          238                       # Number of memory responses ignored because the instruction is squashed
system.cpu.iew.lsq.thread0.invAddrLoads             0                       # Number of loads ignored due to an invalid address
system.cpu.iew.lsq.thread0.invAddrSwpfs             0                       # Number of software prefetches ignored due to an invalid address
system.cpu.iew.lsq.thread0.memOrderViolation           76                       # Number of memory ordering violations
system.cpu.iew.lsq.thread0.rescheduledLoads            0                       # Number of loads that were rescheduled
system.cpu.iew.lsq.thread0.squashedLoads       120336                       # Number of loads squashed
system.cpu.iew.lsq.thread0.squashedStores        31799                       # Number of stores squashed
system.cpu.iew.memOrderViolationEvents             76                       # Number of memory order violations
system.cpu.iew.predictedNotTakenIncorrect        21818                       # Number of branches that were predicted not taken incorrectly
system.cpu.iew.predictedTakenIncorrect           8331                       # Number of branches that were predicted taken incorrectly
system.cpu.iew.wb_consumers                   6003268                       # num instructions consuming a value
system.cpu.iew.wb_count                       4340714                       # cumulative count of insts written-back
system.cpu.iew.wb_fanout                     0.571603                       # average fanout of values written-back
system.cpu.iew.wb_producers                   3431484                       # num instructions producing a value
system.cpu.iew.wb_rate                       1.517865                       # insts written-back per cycle
system.cpu.iew.wb_sent                        4348127                       # cumulative count of insts sent to commit
system.cpu.int_regfile_reads                  6751024                       # number of integer regfile reads
system.cpu.int_regfile_writes                 3732163                       # number of integer regfile writes
system.cpu.ipc                               0.760480                       # IPC: Instructions Per Cycle
system.cpu.ipc_total                         0.760480                       # IPC: Total IPC of All Threads
system.cpu.iq.FU_type_0::No_OpClass             27417      0.62%      0.62% # Type of FU issued
system.cpu.iq.FU_type_0::IntAlu               3432832     78.00%     78.62% # Type of FU issued
system.cpu.iq.FU_type_0::IntMult                  454      0.01%     78.64% # Type of FU issued
system.cpu.iq.FU_type_0::IntDiv                 42037      0.96%     79.59% # Type of FU issued
system.cpu.iq.FU_type_0::FloatAdd                4655      0.11%     79.70% # Type of FU issued
system.cpu.iq.FU_type_0::FloatCmp                   0      0.00%     79.70% # Type of FU issued
system.cpu.iq.FU_type_0::FloatCvt                1430      0.03%     79.73% # Type of FU issued
system.cpu.iq.FU_type_0::FloatMult                  0      0.00%     79.73% # Type of FU issued
system.cpu.iq.FU_type_0::FloatMultAcc               0      0.00%     79.73% # Type of FU issued
system.cpu.iq.FU_type_0::FloatDiv                   0      0.00%     79.73% # Type of FU issued
system.cpu.iq.FU_type_0::FloatMisc                  0      0.00%     79.73% # Type of FU issued
system.cpu.iq.FU_type_0::FloatSqrt                  0      0.00%     79.73% # Type of FU issued
system.cpu.iq.FU_type_0::SimdAdd                 7030      0.16%     79.89% # Type of FU issued
system.cpu.iq.FU_type_0::SimdAddAcc                 0      0.00%     79.89% # Type of FU issued
system.cpu.iq.FU_type_0::SimdAlu                15384      0.35%     80.24% # Type of FU issued
system.cpu.iq.FU_type_0::SimdCmp                    0      0.00%     80.24% # Type of FU issued
system.cpu.iq.FU_type_0::SimdCvt                14310      0.33%     80.56% # Type of FU issued
system.cpu.iq.FU_type_0::SimdMisc                7350      0.17%     80.73% # Type of FU issued
system.cpu.iq.FU_type_0::SimdMult                   0      0.00%     80.73% # Type of FU issued
system.cpu.iq.FU_type_0::SimdMultAcc                0      0.00%     80.73% # Type of FU issued
system.cpu.iq.FU_type_0::SimdShift               2456      0.06%     80.79% # Type of FU issued
system.cpu.iq.FU_type_0::SimdShiftAcc               0      0.00%     80.79% # Type of FU issued
system.cpu.iq.FU_type_0::SimdDiv                    0      0.00%     80.79% # Type of FU issued
system.cpu.iq.FU_type_0::SimdSqrt                   0      0.00%     80.79% # Type of FU issued
system.cpu.iq.FU_type_0::SimdFloatAdd               0      0.00%     80.79% # Type of FU issued
system.cpu.iq.FU_type_0::SimdFloatAlu               0      0.00%     80.79% # Type of FU issued
system.cpu.iq.FU_type_0::SimdFloatCmp               0      0.00%     80.79% # Type of FU issued
system.cpu.iq.FU_type_0::SimdFloatCvt               0      0.00%     80.79% # Type of FU issued
system.cpu.iq.FU_type_0::SimdFloatDiv               0      0.00%     80.79% # Type of FU issued
system.cpu.iq.FU_type_0::SimdFloatMisc              0      0.00%     80.79% # Type of FU issued
system.cpu.iq.FU_type_0::SimdFloatMult              0      0.00%     80.79% # Type of FU issued
system.cpu.iq.FU_type_0::SimdFloatMultAcc            0      0.00%     80.79% # Type of FU issued
system.cpu.iq.FU_type_0::SimdFloatSqrt              0      0.00%     80.79% # Type of FU issued
system.cpu.iq.FU_type_0::SimdReduceAdd              0      0.00%     80.79% # Type of FU issued
system.cpu.iq.FU_type_0::SimdReduceAlu              0      0.00%     80.79% # Type of FU issued
system.cpu.iq.FU_type_0::SimdReduceCmp              0      0.00%     80.79% # Type of FU issued
system.cpu.iq.FU_type_0::SimdFloatReduceAdd            0      0.00%     80.79% # Type of FU issued
system.cpu.iq.FU_type_0::SimdFloatReduceCmp            0      0.00%     80.79% # Type of FU issued
system.cpu.iq.FU_type_0::SimdAes                    0      0.00%     80.79% # Type of FU issued
system.cpu.iq.FU_type_0::SimdAesMix                 0      0.00%     80.79% # Type of FU issued
system.cpu.iq.FU_type_0::SimdSha1Hash               0      0.00%     80.79% # Type of FU issued
system.cpu.iq.FU_type_0::SimdSha1Hash2              0      0.00%     80.79% # Type of FU issued
system.cpu.iq.FU_type_0::SimdSha256Hash             0      0.00%     80.79% # Type of FU issued
system.cpu.iq.FU_type_0::SimdSha256Hash2            0      0.00%     80.79% # Type of FU issued
system.cpu.iq.FU_type_0::SimdShaSigma2              0      0.00%     80.79% # Type of FU issued
system.cpu.iq.FU_type_0::SimdShaSigma3              0      0.00%     80.79% # Type of FU issued
system.cpu.iq.FU_type_0::SimdPredAlu                0      0.00%     80.79% # Type of FU issued
system.cpu.iq.FU_type_0::MemRead               605844     13.77%     94.55% # Type of FU issued
system.cpu.iq.FU_type_0::MemWrite              199656      4.54%     99.09% # Type of FU issued
system.cpu.iq.FU_type_0::FloatMemRead           26212      0.60%     99.68% # Type of FU issued
system.cpu.iq.FU_type_0::FloatMemWrite          13896      0.32%    100.00% # Type of FU issued
system.cpu.iq.FU_type_0::IprAccess                  0      0.00%    100.00% # Type of FU issued
system.cpu.iq.FU_type_0::InstPrefetch               0      0.00%    100.00% # Type of FU issued
system.cpu.iq.FU_type_0::total                4400963                       # Type of FU issued
system.cpu.iq.fp_alu_accesses                   93794                       # Number of floating point alu accesses
system.cpu.iq.fp_inst_queue_reads              188989                       # Number of floating instruction queue reads
system.cpu.iq.fp_inst_queue_wakeup_accesses        90187                       # Number of floating instruction queue wakeup accesses
system.cpu.iq.fp_inst_queue_writes             138433                       # Number of floating instruction queue writes
system.cpu.iq.fu_busy_cnt                           0                       # FU busy when requested
system.cpu.iq.fu_busy_rate                          0                       # FU busy rate (busy events/executed inst)
system.cpu.iq.fu_full::No_OpClass                   0                       # attempts to use FU when none available
system.cpu.iq.fu_full::IntAlu                       0                       # attempts to use FU when none available
system.cpu.iq.fu_full::IntMult                      0                       # attempts to use FU when none available
system.cpu.iq.fu_full::IntDiv                       0                       # attempts to use FU when none available
system.cpu.iq.fu_full::FloatAdd                     0                       # attempts to use FU when none available
system.cpu.iq.fu_full::FloatCmp                     0                       # attempts to use FU when none available
system.cpu.iq.fu_full::FloatCvt                     0                       # attempts to use FU when none available
system.cpu.iq.fu_full::FloatMult                    0                       # attempts to use FU when none available
system.cpu.iq.fu_full::FloatMultAcc                 0                       # attempts to use FU when none available
system.cpu.iq.fu_full::FloatDiv                     0                       # attempts to use FU when none available
system.cpu.iq.fu_full::FloatMisc                    0                       # attempts to use FU when none available
system.cpu.iq.fu_full::FloatSqrt                    0                       # attempts to use FU when none available
system.cpu.iq.fu_full::SimdAdd                      0                       # attempts to use FU when none available
system.cpu.iq.fu_full::SimdAddAcc                   0                       # attempts to use FU when none available
system.cpu.iq.fu_full::SimdAlu                      0                       # attempts to use FU when none available
system.cpu.iq.fu_full::SimdCmp                      0                       # attempts to use FU when none available
system.cpu.iq.fu_full::SimdCvt                      0                       # attempts to use FU when none available
system.cpu.iq.fu_full::SimdMisc                     0                       # attempts to use FU when none available
system.cpu.iq.fu_full::SimdMult                     0                       # attempts to use FU when none available
system.cpu.iq.fu_full::SimdMultAcc                  0                       # attempts to use FU when none available
system.cpu.iq.fu_full::SimdShift                    0                       # attempts to use FU when none available
system.cpu.iq.fu_full::SimdShiftAcc                 0                       # attempts to use FU when none available
system.cpu.iq.fu_full::SimdDiv                      0                       # attempts to use FU when none available
system.cpu.iq.fu_full::SimdSqrt                     0                       # attempts to use FU when none available
system.cpu.iq.fu_full::SimdFloatAdd                 0                       # attempts to use FU when none available
system.cpu.iq.fu_full::SimdFloatAlu                 0                       # attempts to use FU when none available
system.cpu.iq.fu_full::SimdFloatCmp                 0                       # attempts to use FU when none available
system.cpu.iq.fu_full::SimdFloatCvt                 0                       # attempts to use FU when none available
system.cpu.iq.fu_full::SimdFloatDiv                 0                       # attempts to use FU when none available
system.cpu.iq.fu_full::SimdFloatMisc                0                       # attempts to use FU when none available
system.cpu.iq.fu_full::SimdFloatMult                0                       # attempts to use FU when none available
system.cpu.iq.fu_full::SimdFloatMultAcc             0                       # attempts to use FU when none available
system.cpu.iq.fu_full::SimdFloatSqrt                0                       # attempts to use FU when none available
system.cpu.iq.fu_full::SimdReduceAdd                0                       # attempts to use FU when none available
system.cpu.iq.fu_full::SimdReduceAlu                0                       # attempts to use FU when none available
system.cpu.iq.fu_full::SimdReduceCmp                0                       # attempts to use FU when none available
system.cpu.iq.fu_full::SimdFloatReduceAdd            0                       # attempts to use FU when none available
system.cpu.iq.fu_full::SimdFloatReduceCmp            0                       # attempts to use FU when none available
system.cpu.iq.fu_full::SimdAes                      0                       # attempts to use FU when none available
system.cpu.iq.fu_full::SimdAesMix                   0                       # attempts to use FU when none available
system.cpu.iq.fu_full::SimdSha1Hash                 0                       # attempts to use FU when none available
system.cpu.iq.fu_full::SimdSha1Hash2                0                       # attempts to use FU when none available
system.cpu.iq.fu_full::SimdSha256Hash               0                       # attempts to use FU when none available
system.cpu.iq.fu_full::SimdSha256Hash2              0                       # attempts to use FU when none available
system.cpu.iq.fu_full::SimdShaSigma2                0                       # attempts to use FU when none available
system.cpu.iq.fu_full::SimdShaSigma3                0                       # attempts to use FU when none available
system.cpu.iq.fu_full::SimdPredAlu                  0                       # attempts to use FU when none available
system.cpu.iq.fu_full::MemRead                      0                       # attempts to use FU when none available
system.cpu.iq.fu_full::MemWrite                     0                       # attempts to use FU when none available
system.cpu.iq.fu_full::FloatMemRead                 0                       # attempts to use FU when none available
system.cpu.iq.fu_full::FloatMemWrite                0                       # attempts to use FU when none available
system.cpu.iq.fu_full::IprAccess                    0                       # attempts to use FU when none available
system.cpu.iq.fu_full::InstPrefetch                 0                       # attempts to use FU when none available
system.cpu.iq.int_alu_accesses                4279752                       # Number of integer alu accesses
system.cpu.iq.int_inst_queue_reads           11321829                       # Number of integer instruction queue reads
system.cpu.iq.int_inst_queue_wakeup_accesses      4250527                       # Number of integer instruction queue wakeup accesses
system.cpu.iq.int_inst_queue_writes           5510197                       # Number of integer instruction queue writes
system.cpu.iq.iqInstsAdded                    4730028                       # Number of instructions added to the IQ (excludes non-spec)
system.cpu.iq.iqInstsIssued                   4400963                       # Number of instructions issued
system.cpu.iq.iqNonSpecInstsAdded                2033                       # Number of non-speculative instructions added to the IQ
system.cpu.iq.iqSquashedInstsExamined          916495                       # Number of squashed instructions iterated over during squash; mainly for profiling
system.cpu.iq.iqSquashedInstsIssued             18858                       # Number of squashed instructions issued
system.cpu.iq.iqSquashedNonSpecRemoved           1181                       # Number of squashed non-spec instructions that were removed
system.cpu.iq.iqSquashedOperandsExamined      1369221                       # Number of squashed operands that are examined and possibly removed from graph
system.cpu.iq.issued_per_cycle::samples       2690037                       # Number of insts issued each cycle
system.cpu.iq.issued_per_cycle::mean         1.636023                       # Number of insts issued each cycle
system.cpu.iq.issued_per_cycle::stdev        1.670049                       # Number of insts issued each cycle
system.cpu.iq.issued_per_cycle::underflows            0      0.00%      0.00% # Number of insts issued each cycle
system.cpu.iq.issued_per_cycle::0             1203305     44.73%     44.73% # Number of insts issued each cycle
system.cpu.iq.issued_per_cycle::1              183569      6.82%     51.56% # Number of insts issued each cycle
system.cpu.iq.issued_per_cycle::2              317692     11.81%     63.37% # Number of insts issued each cycle
system.cpu.iq.issued_per_cycle::3              359874     13.38%     76.74% # Number of insts issued each cycle
system.cpu.iq.issued_per_cycle::4              625597     23.26%    100.00% # Number of insts issued each cycle
system.cpu.iq.issued_per_cycle::overflows            0      0.00%    100.00% # Number of insts issued each cycle
system.cpu.iq.issued_per_cycle::min_value            0                       # Number of insts issued each cycle
system.cpu.iq.issued_per_cycle::max_value            4                       # Number of insts issued each cycle
system.cpu.iq.issued_per_cycle::total         2690037                       # Number of insts issued each cycle
system.cpu.iq.rate                           1.538933                       # Inst issue rate
system.cpu.iq.vec_alu_accesses                      0                       # Number of vector alu accesses
system.cpu.iq.vec_inst_queue_reads                  0                       # Number of vector instruction queue reads
system.cpu.iq.vec_inst_queue_wakeup_accesses            0                       # Number of vector instruction queue wakeup accesses
system.cpu.iq.vec_inst_queue_writes                 0                       # Number of vector instruction queue writes
system.cpu.itb.rdAccesses                           0                       # TLB accesses on read requests
system.cpu.itb.rdMisses                             0                       # TLB misses on read requests
system.cpu.itb.wrAccesses                      262600                       # TLB accesses on write requests
system.cpu.itb.wrMisses                           404                       # TLB misses on write requests
system.cpu.memDep0.conflictingLoads             11626                       # Number of conflicting loads.
system.cpu.memDep0.conflictingStores             5472                       # Number of conflicting stores.
system.cpu.memDep0.insertedLoads               653992                       # Number of loads inserted to the mem dependence unit.
system.cpu.memDep0.insertedStores              222451                       # Number of stores inserted to the mem dependence unit.
system.cpu.misc_regfile_reads                 1677926                       # number of misc regfile reads
system.cpu.misc_regfile_writes                    774                       # number of misc regfile writes
system.cpu.numCycles                          2859749                       # number of cpu cycles simulated
system.cpu.numWorkItemsCompleted                    0                       # number of work items this cpu completed
system.cpu.numWorkItemsStarted                      0                       # number of work items this cpu started
system.cpu.process.numSyscalls                     77                       # Number of system calls
system.cpu.rename.BlockCycles                  856786                       # Number of cycles rename is blocking
system.cpu.rename.CommittedMaps               5135918                       # Number of HB maps that are committed
system.cpu.rename.FullRegisterEvents               28                       # Number of times there has been no free registers
system.cpu.rename.IQFullEvents                  43853                       # Number of times rename has blocked due to IQ full
system.cpu.rename.IdleCycles                   370334                       # Number of cycles rename is idle
system.cpu.rename.LQFullEvents                  14498                       # Number of times rename has blocked due to LQ full
system.cpu.rename.ROBFullEvents                  4393                       # Number of times rename has blocked due to ROB full
system.cpu.rename.RenameLookups              12724132                       # Number of register rename lookups that rename has made
system.cpu.rename.RenamedInsts                4878044                       # Number of instructions processed by rename
system.cpu.rename.RenamedOperands             6568235                       # Number of destination operands rename has renamed
system.cpu.rename.RunCycles                   1243820                       # Number of cycles rename is running
system.cpu.rename.SQFullEvents                  76430                       # Number of times rename has blocked due to SQ full
system.cpu.rename.SquashCycles                  25692                       # Number of cycles rename is squashing
system.cpu.rename.UnblockCycles                171745                       # Number of cycles rename is unblocking
system.cpu.rename.UndoneMaps                  1432294                       # Number of HB maps that are undone due to squashing
system.cpu.rename.fp_rename_lookups            162395                       # Number of floating rename lookups
system.cpu.rename.int_rename_lookups          7726028                       # Number of integer rename lookups
system.cpu.rename.serializeStallCycles          21660                       # count of cycles rename stalled for serializing inst
system.cpu.rename.serializingInsts                996                       # count of serializing insts renamed
system.cpu.rename.skidInsts                    201163                       # count of insts added to the skid buffer
system.cpu.rename.tempSerializingInsts           1053                       # count of temporary serializing insts renamed
system.cpu.rob.rob_reads                      6533146                       # The number of ROB reads
system.cpu.rob.rob_writes                     9715153                       # The number of ROB writes
system.cpu.timesIdled                            1727                       # Number of times that the entire CPU went into an idle state and unscheduled itself
system.l2bus.snoop_filter.hit_multi_requests           22                       # Number of requests hitting in the snoop filter with multiple (>1) holders of the requested data.
system.l2bus.snoop_filter.hit_multi_snoops            1                       # Number of snoops hitting in the snoop filter with multiple (>1) holders of the requested data.
system.l2bus.snoop_filter.hit_single_requests        18919                       # Number of requests hitting in the snoop filter with a single holder of the requested data.
system.l2bus.snoop_filter.hit_single_snoops          437                       # Number of snoops hitting in the snoop filter with a single holder of the requested data.
system.l2bus.snoop_filter.tot_requests          39112                       # Total number of requests made to the snoop filter.
system.l2bus.snoop_filter.tot_snoops              438                       # Total number of snoops made to the snoop filter.
system.l2cache.prefetcher.num_hwpf_issued          648                       # number of hwpf issued
system.l2cache.prefetcher.pfBufferHit               0                       # number of redundant prefetches already in prefetch queue
system.l2cache.prefetcher.pfIdentified            648                       # number of prefetch candidates identified
system.l2cache.prefetcher.pfInCache                 0                       # number of redundant prefetches already in cache/mshr dropped
system.l2cache.prefetcher.pfRemovedFull             0                       # number of prefetches dropped due to prefetch queue size
system.l2cache.prefetcher.pfSpanPage              108                       # number of prefetches that crossed the page
system.membus.snoop_filter.hit_multi_requests            0                       # Number of requests hitting in the snoop filter with multiple (>1) holders of the requested data.
system.membus.snoop_filter.hit_multi_snoops            0                       # Number of snoops hitting in the snoop filter with multiple (>1) holders of the requested data.
system.membus.snoop_filter.hit_single_requests         9560                       # Number of requests hitting in the snoop filter with a single holder of the requested data.
system.membus.snoop_filter.hit_single_snoops            0                       # Number of snoops hitting in the snoop filter with a single holder of the requested data.
system.membus.snoop_filter.tot_requests         23241                       # Total number of requests made to the snoop filter.
system.membus.snoop_filter.tot_snoops               0                       # Total number of snoops made to the snoop filter.
system.membus.pwrStateResidencyTicks::UNDEFINED   1143899200                       # Cumulative time (in ticks) in various power states
system.membus.trans_dist::ReadResp              12370                       # Transaction distribution
system.membus.trans_dist::WritebackDirty         1360                       # Transaction distribution
system.membus.trans_dist::CleanEvict             8200                       # Transaction distribution
system.membus.trans_dist::ReadExReq              1311                       # Transaction distribution
system.membus.trans_dist::ReadExResp             1311                       # Transaction distribution
system.membus.trans_dist::ReadSharedReq         12370                       # Transaction distribution
system.membus.pkt_count_system.l2cache.mem_side::system.mem_ctrl.port        36922                       # Packet count per connected master and slave (bytes)
system.membus.pkt_count_system.l2cache.mem_side::total        36922                       # Packet count per connected master and slave (bytes)
system.membus.pkt_count::total                  36922                       # Packet count per connected master and slave (bytes)
system.membus.pkt_size_system.l2cache.mem_side::system.mem_ctrl.port       962624                       # Cumulative packet size per connected master and slave (bytes)
system.membus.pkt_size_system.l2cache.mem_side::total       962624                       # Cumulative packet size per connected master and slave (bytes)
system.membus.pkt_size::total                  962624                       # Cumulative packet size per connected master and slave (bytes)
system.membus.snoops                                0                       # Total snoops (count)
system.membus.snoopTraffic                          0                       # Total snoop traffic (bytes)
system.membus.snoop_fanout::samples             13681                       # Request fanout histogram
system.membus.snoop_fanout::mean                    0                       # Request fanout histogram
system.membus.snoop_fanout::stdev                   0                       # Request fanout histogram
system.membus.snoop_fanout::underflows              0      0.00%      0.00% # Request fanout histogram
system.membus.snoop_fanout::0                   13681    100.00%    100.00% # Request fanout histogram
system.membus.snoop_fanout::1                       0      0.00%    100.00% # Request fanout histogram
system.membus.snoop_fanout::overflows               0      0.00%    100.00% # Request fanout histogram
system.membus.snoop_fanout::min_value               0                       # Request fanout histogram
system.membus.snoop_fanout::max_value               0                       # Request fanout histogram
system.membus.snoop_fanout::total               13681                       # Request fanout histogram
system.membus.reqLayer2.occupancy            11494981                       # Layer occupancy (ticks)
system.membus.reqLayer2.utilization               1.0                       # Layer utilization (%)
system.membus.respLayer0.occupancy           29714819                       # Layer occupancy (ticks)
system.membus.respLayer0.utilization              2.6                       # Layer utilization (%)
system.l2bus.pwrStateResidencyTicks::UNDEFINED   1143899200                       # Cumulative time (in ticks) in various power states
system.l2bus.trans_dist::ReadResp               18147                       # Transaction distribution
system.l2bus.trans_dist::WritebackDirty          4165                       # Transaction distribution
system.l2bus.trans_dist::CleanEvict             24399                       # Transaction distribution
system.l2bus.trans_dist::HardPFReq                917                       # Transaction distribution
system.l2bus.trans_dist::ReadExReq               2049                       # Transaction distribution
system.l2bus.trans_dist::ReadExResp              2049                       # Transaction distribution
system.l2bus.trans_dist::ReadSharedReq          18147                       # Transaction distribution
system.l2bus.pkt_count_system.cpu.icache.mem_side::system.l2cache.cpu_side         8971                       # Packet count per connected master and slave (bytes)
system.l2bus.pkt_count_system.cpu.dcache.mem_side::system.l2cache.cpu_side        50333                       # Packet count per connected master and slave (bytes)
system.l2bus.pkt_count::total                   59304                       # Packet count per connected master and slave (bytes)
system.l2bus.pkt_size_system.cpu.icache.mem_side::system.l2cache.cpu_side       196672                       # Cumulative packet size per connected master and slave (bytes)
system.l2bus.pkt_size_system.cpu.dcache.mem_side::system.l2cache.cpu_side      1275136                       # Cumulative packet size per connected master and slave (bytes)
system.l2bus.pkt_size::total                  1471808                       # Cumulative packet size per connected master and slave (bytes)
system.l2bus.snoops                             10569                       # Total snoops (count)
system.l2bus.snoopTraffic                       87296                       # Total snoop traffic (bytes)
system.l2bus.snoop_fanout::samples              30761                       # Request fanout histogram
system.l2bus.snoop_fanout::mean              0.015084                       # Request fanout histogram
system.l2bus.snoop_fanout::stdev             0.122156                       # Request fanout histogram
system.l2bus.snoop_fanout::underflows               0      0.00%      0.00% # Request fanout histogram
system.l2bus.snoop_fanout::0                    30298     98.49%     98.49% # Request fanout histogram
system.l2bus.snoop_fanout::1                      462      1.50%    100.00% # Request fanout histogram
system.l2bus.snoop_fanout::2                        1      0.00%    100.00% # Request fanout histogram
system.l2bus.snoop_fanout::overflows                0      0.00%    100.00% # Request fanout histogram
system.l2bus.snoop_fanout::min_value                0                       # Request fanout histogram
system.l2bus.snoop_fanout::max_value                2                       # Request fanout histogram
system.l2bus.snoop_fanout::total                30761                       # Request fanout histogram
system.l2bus.respLayer1.occupancy            20543997                       # Layer occupancy (ticks)
system.l2bus.respLayer1.utilization               1.8                       # Layer utilization (%)
system.l2bus.reqLayer0.occupancy             19352615                       # Layer occupancy (ticks)
system.l2bus.reqLayer0.utilization                1.7                       # Layer utilization (%)
system.l2bus.respLayer0.occupancy             3692799                       # Layer occupancy (ticks)
system.l2bus.respLayer0.utilization               0.3                       # Layer utilization (%)
system.clk_domain.clock                           400                       # Clock period in ticks
system.clk_domain.voltage_domain.voltage            1                       # Voltage in Volts
system.cpu.pwrStateResidencyTicks::ON      1143899200                       # Cumulative time (in ticks) in various power states
system.cpu.icache.pwrStateResidencyTicks::UNDEFINED   1143899200                       # Cumulative time (in ticks) in various power states
system.cpu.icache.demand_hits::.cpu.inst       258646                       # number of demand (read+write) hits
system.cpu.icache.demand_hits::total           258646                       # number of demand (read+write) hits
system.cpu.icache.overall_hits::.cpu.inst       258646                       # number of overall hits
system.cpu.icache.overall_hits::total          258646                       # number of overall hits
system.cpu.icache.demand_misses::.cpu.inst         3810                       # number of demand (read+write) misses
system.cpu.icache.demand_misses::total           3810                       # number of demand (read+write) misses
system.cpu.icache.overall_misses::.cpu.inst         3810                       # number of overall misses
system.cpu.icache.overall_misses::total          3810                       # number of overall misses
system.cpu.icache.demand_miss_latency::.cpu.inst    185577200                       # number of demand (read+write) miss cycles
system.cpu.icache.demand_miss_latency::total    185577200                       # number of demand (read+write) miss cycles
system.cpu.icache.overall_miss_latency::.cpu.inst    185577200                       # number of overall miss cycles
system.cpu.icache.overall_miss_latency::total    185577200                       # number of overall miss cycles
system.cpu.icache.demand_accesses::.cpu.inst       262456                       # number of demand (read+write) accesses
system.cpu.icache.demand_accesses::total       262456                       # number of demand (read+write) accesses
system.cpu.icache.overall_accesses::.cpu.inst       262456                       # number of overall (read+write) accesses
system.cpu.icache.overall_accesses::total       262456                       # number of overall (read+write) accesses
system.cpu.icache.demand_miss_rate::.cpu.inst     0.014517                       # miss rate for demand accesses
system.cpu.icache.demand_miss_rate::total     0.014517                       # miss rate for demand accesses
system.cpu.icache.overall_miss_rate::.cpu.inst     0.014517                       # miss rate for overall accesses
system.cpu.icache.overall_miss_rate::total     0.014517                       # miss rate for overall accesses
system.cpu.icache.demand_avg_miss_latency::.cpu.inst 48707.926509                       # average overall miss latency
system.cpu.icache.demand_avg_miss_latency::total 48707.926509                       # average overall miss latency
system.cpu.icache.overall_avg_miss_latency::.cpu.inst 48707.926509                       # average overall miss latency
system.cpu.icache.overall_avg_miss_latency::total 48707.926509                       # average overall miss latency
system.cpu.icache.blocked_cycles::no_mshrs          169                       # number of cycles access was blocked
system.cpu.icache.blocked_cycles::no_targets            0                       # number of cycles access was blocked
system.cpu.icache.blocked::no_mshrs                 5                       # number of cycles access was blocked
system.cpu.icache.blocked::no_targets               0                       # number of cycles access was blocked
system.cpu.icache.avg_blocked_cycles::no_mshrs    33.800000                       # average number of cycles each access was blocked
system.cpu.icache.avg_blocked_cycles::no_targets          nan                       # average number of cycles each access was blocked
system.cpu.icache.demand_mshr_hits::.cpu.inst          733                       # number of demand (read+write) MSHR hits
system.cpu.icache.demand_mshr_hits::total          733                       # number of demand (read+write) MSHR hits
system.cpu.icache.overall_mshr_hits::.cpu.inst          733                       # number of overall MSHR hits
system.cpu.icache.overall_mshr_hits::total          733                       # number of overall MSHR hits
system.cpu.icache.demand_mshr_misses::.cpu.inst         3077                       # number of demand (read+write) MSHR misses
system.cpu.icache.demand_mshr_misses::total         3077                       # number of demand (read+write) MSHR misses
system.cpu.icache.overall_mshr_misses::.cpu.inst         3077                       # number of overall MSHR misses
system.cpu.icache.overall_mshr_misses::total         3077                       # number of overall MSHR misses
system.cpu.icache.demand_mshr_miss_latency::.cpu.inst    149691600                       # number of demand (read+write) MSHR miss cycles
system.cpu.icache.demand_mshr_miss_latency::total    149691600                       # number of demand (read+write) MSHR miss cycles
system.cpu.icache.overall_mshr_miss_latency::.cpu.inst    149691600                       # number of overall MSHR miss cycles
system.cpu.icache.overall_mshr_miss_latency::total    149691600                       # number of overall MSHR miss cycles
system.cpu.icache.demand_mshr_miss_rate::.cpu.inst     0.011724                       # mshr miss rate for demand accesses
system.cpu.icache.demand_mshr_miss_rate::total     0.011724                       # mshr miss rate for demand accesses
system.cpu.icache.overall_mshr_miss_rate::.cpu.inst     0.011724                       # mshr miss rate for overall accesses
system.cpu.icache.overall_mshr_miss_rate::total     0.011724                       # mshr miss rate for overall accesses
system.cpu.icache.demand_avg_mshr_miss_latency::.cpu.inst 48648.553786                       # average overall mshr miss latency
system.cpu.icache.demand_avg_mshr_miss_latency::total 48648.553786                       # average overall mshr miss latency
system.cpu.icache.overall_avg_mshr_miss_latency::.cpu.inst 48648.553786                       # average overall mshr miss latency
system.cpu.icache.overall_avg_mshr_miss_latency::total 48648.553786                       # average overall mshr miss latency
system.cpu.icache.replacements                   2821                       # number of replacements
system.cpu.icache.ReadReq_hits::.cpu.inst       258646                       # number of ReadReq hits
system.cpu.icache.ReadReq_hits::total          258646                       # number of ReadReq hits
system.cpu.icache.ReadReq_misses::.cpu.inst         3810                       # number of ReadReq misses
system.cpu.icache.ReadReq_misses::total          3810                       # number of ReadReq misses
system.cpu.icache.ReadReq_miss_latency::.cpu.inst    185577200                       # number of ReadReq miss cycles
system.cpu.icache.ReadReq_miss_latency::total    185577200                       # number of ReadReq miss cycles
system.cpu.icache.ReadReq_accesses::.cpu.inst       262456                       # number of ReadReq accesses(hits+misses)
system.cpu.icache.ReadReq_accesses::total       262456                       # number of ReadReq accesses(hits+misses)
system.cpu.icache.ReadReq_miss_rate::.cpu.inst     0.014517                       # miss rate for ReadReq accesses
system.cpu.icache.ReadReq_miss_rate::total     0.014517                       # miss rate for ReadReq accesses
system.cpu.icache.ReadReq_avg_miss_latency::.cpu.inst 48707.926509                       # average ReadReq miss latency
system.cpu.icache.ReadReq_avg_miss_latency::total 48707.926509                       # average ReadReq miss latency
system.cpu.icache.ReadReq_mshr_hits::.cpu.inst          733                       # number of ReadReq MSHR hits
system.cpu.icache.ReadReq_mshr_hits::total          733                       # number of ReadReq MSHR hits
system.cpu.icache.ReadReq_mshr_misses::.cpu.inst         3077                       # number of ReadReq MSHR misses
system.cpu.icache.ReadReq_mshr_misses::total         3077                       # number of ReadReq MSHR misses
system.cpu.icache.ReadReq_mshr_miss_latency::.cpu.inst    149691600                       # number of ReadReq MSHR miss cycles
system.cpu.icache.ReadReq_mshr_miss_latency::total    149691600                       # number of ReadReq MSHR miss cycles
system.cpu.icache.ReadReq_mshr_miss_rate::.cpu.inst     0.011724                       # mshr miss rate for ReadReq accesses
system.cpu.icache.ReadReq_mshr_miss_rate::total     0.011724                       # mshr miss rate for ReadReq accesses
system.cpu.icache.ReadReq_avg_mshr_miss_latency::.cpu.inst 48648.553786                       # average ReadReq mshr miss latency
system.cpu.icache.ReadReq_avg_mshr_miss_latency::total 48648.553786                       # average ReadReq mshr miss latency
system.cpu.icache.prefetcher.pwrStateResidencyTicks::UNDEFINED   1143899200                       # Cumulative time (in ticks) in various power states
system.cpu.icache.tags.pwrStateResidencyTicks::UNDEFINED   1143899200                       # Cumulative time (in ticks) in various power states
system.cpu.icache.tags.tagsinuse           253.600349                       # Cycle average of tags in use
system.cpu.icache.tags.total_refs              237495                       # Total number of references to valid blocks.
system.cpu.icache.tags.sampled_refs              2821                       # Sample count of references to valid blocks.
system.cpu.icache.tags.avg_refs             84.188231                       # Average number of references to valid blocks.
system.cpu.icache.tags.warmup_cycle             66400                       # Cycle when the warmup percentage was hit.
system.cpu.icache.tags.occ_blocks::.cpu.inst   253.600349                       # Average occupied blocks per requestor
system.cpu.icache.tags.occ_percent::.cpu.inst     0.990626                       # Average percentage of cache occupancy
system.cpu.icache.tags.occ_percent::total     0.990626                       # Average percentage of cache occupancy
system.cpu.icache.tags.occ_task_id_blocks::1024          256                       # Occupied blocks per task id
system.cpu.icache.tags.age_task_id_blocks_1024::0           77                       # Occupied blocks per task id
system.cpu.icache.tags.age_task_id_blocks_1024::1          148                       # Occupied blocks per task id
system.cpu.icache.tags.age_task_id_blocks_1024::2           29                       # Occupied blocks per task id
system.cpu.icache.tags.age_task_id_blocks_1024::3            2                       # Occupied blocks per task id
system.cpu.icache.tags.occ_task_id_percent::1024            1                       # Percentage of cache occupancy per task id
system.cpu.icache.tags.tag_accesses            527989                       # Number of tag accesses
system.cpu.icache.tags.data_accesses           527989                       # Number of data accesses
system.cpu.dtb.walker.pwrStateResidencyTicks::UNDEFINED   1143899200                       # Cumulative time (in ticks) in various power states
system.cpu.interrupts.clk_domain.clock           6400                       # Clock period in ticks
system.cpu.itb.walker.pwrStateResidencyTicks::UNDEFINED   1143899200                       # Cumulative time (in ticks) in various power states
system.cpu.dcache.pwrStateResidencyTicks::UNDEFINED   1143899200                       # Cumulative time (in ticks) in various power states
system.cpu.dcache.demand_hits::.cpu.data       733072                       # number of demand (read+write) hits
system.cpu.dcache.demand_hits::total           733072                       # number of demand (read+write) hits
system.cpu.dcache.overall_hits::.cpu.data       733072                       # number of overall hits
system.cpu.dcache.overall_hits::total          733072                       # number of overall hits
system.cpu.dcache.demand_misses::.cpu.data        35207                       # number of demand (read+write) misses
system.cpu.dcache.demand_misses::total          35207                       # number of demand (read+write) misses
system.cpu.dcache.overall_misses::.cpu.data        35207                       # number of overall misses
system.cpu.dcache.overall_misses::total         35207                       # number of overall misses
system.cpu.dcache.demand_miss_latency::.cpu.data   1707986400                       # number of demand (read+write) miss cycles
system.cpu.dcache.demand_miss_latency::total   1707986400                       # number of demand (read+write) miss cycles
system.cpu.dcache.overall_miss_latency::.cpu.data   1707986400                       # number of overall miss cycles
system.cpu.dcache.overall_miss_latency::total   1707986400                       # number of overall miss cycles
system.cpu.dcache.demand_accesses::.cpu.data       768279                       # number of demand (read+write) accesses
system.cpu.dcache.demand_accesses::total       768279                       # number of demand (read+write) accesses
system.cpu.dcache.overall_accesses::.cpu.data       768279                       # number of overall (read+write) accesses
system.cpu.dcache.overall_accesses::total       768279                       # number of overall (read+write) accesses
system.cpu.dcache.demand_miss_rate::.cpu.data     0.045826                       # miss rate for demand accesses
system.cpu.dcache.demand_miss_rate::total     0.045826                       # miss rate for demand accesses
system.cpu.dcache.overall_miss_rate::.cpu.data     0.045826                       # miss rate for overall accesses
system.cpu.dcache.overall_miss_rate::total     0.045826                       # miss rate for overall accesses
system.cpu.dcache.demand_avg_miss_latency::.cpu.data 48512.693498                       # average overall miss latency
system.cpu.dcache.demand_avg_miss_latency::total 48512.693498                       # average overall miss latency
system.cpu.dcache.overall_avg_miss_latency::.cpu.data 48512.693498                       # average overall miss latency
system.cpu.dcache.overall_avg_miss_latency::total 48512.693498                       # average overall miss latency
system.cpu.dcache.blocked_cycles::no_mshrs        28478                       # number of cycles access was blocked
system.cpu.dcache.blocked_cycles::no_targets          169                       # number of cycles access was blocked
system.cpu.dcache.blocked::no_mshrs               731                       # number of cycles access was blocked
system.cpu.dcache.blocked::no_targets               2                       # number of cycles access was blocked
system.cpu.dcache.avg_blocked_cycles::no_mshrs    38.957592                       # average number of cycles each access was blocked
system.cpu.dcache.avg_blocked_cycles::no_targets    84.500000                       # average number of cycles each access was blocked
system.cpu.dcache.unused_prefetches              1878                       # number of HardPF blocks evicted w/o reference
system.cpu.dcache.writebacks::.writebacks         2805                       # number of writebacks
system.cpu.dcache.writebacks::total              2805                       # number of writebacks
system.cpu.dcache.demand_mshr_hits::.cpu.data        22546                       # number of demand (read+write) MSHR hits
system.cpu.dcache.demand_mshr_hits::total        22546                       # number of demand (read+write) MSHR hits
system.cpu.dcache.overall_mshr_hits::.cpu.data        22546                       # number of overall MSHR hits
system.cpu.dcache.overall_mshr_hits::total        22546                       # number of overall MSHR hits
system.cpu.dcache.demand_mshr_misses::.cpu.data        12661                       # number of demand (read+write) MSHR misses
system.cpu.dcache.demand_mshr_misses::total        12661                       # number of demand (read+write) MSHR misses
system.cpu.dcache.overall_mshr_misses::.cpu.data        12661                       # number of overall MSHR misses
system.cpu.dcache.overall_mshr_misses::.cpu.dcache.prefetcher         4458                       # number of overall MSHR misses
system.cpu.dcache.overall_mshr_misses::total        17119                       # number of overall MSHR misses
system.cpu.dcache.demand_mshr_miss_latency::.cpu.data    582352800                       # number of demand (read+write) MSHR miss cycles
system.cpu.dcache.demand_mshr_miss_latency::total    582352800                       # number of demand (read+write) MSHR miss cycles
system.cpu.dcache.overall_mshr_miss_latency::.cpu.data    582352800                       # number of overall MSHR miss cycles
system.cpu.dcache.overall_mshr_miss_latency::.cpu.dcache.prefetcher    253957671                       # number of overall MSHR miss cycles
system.cpu.dcache.overall_mshr_miss_latency::total    836310471                       # number of overall MSHR miss cycles
system.cpu.dcache.demand_mshr_miss_rate::.cpu.data     0.016480                       # mshr miss rate for demand accesses
system.cpu.dcache.demand_mshr_miss_rate::total     0.016480                       # mshr miss rate for demand accesses
system.cpu.dcache.overall_mshr_miss_rate::.cpu.data     0.016480                       # mshr miss rate for overall accesses
system.cpu.dcache.overall_mshr_miss_rate::.cpu.dcache.prefetcher          inf                       # mshr miss rate for overall accesses
system.cpu.dcache.overall_mshr_miss_rate::total     0.022282                       # mshr miss rate for overall accesses
system.cpu.dcache.demand_avg_mshr_miss_latency::.cpu.data 45995.798120                       # average overall mshr miss latency
system.cpu.dcache.demand_avg_mshr_miss_latency::total 45995.798120                       # average overall mshr miss latency
system.cpu.dcache.overall_avg_mshr_miss_latency::.cpu.data 45995.798120                       # average overall mshr miss latency
system.cpu.dcache.overall_avg_mshr_miss_latency::.cpu.dcache.prefetcher 56966.727456                       # average overall mshr miss latency
system.cpu.dcache.overall_avg_mshr_miss_latency::total 48852.764239                       # average overall mshr miss latency
system.cpu.dcache.replacements                  16095                       # number of replacements
system.cpu.dcache.ReadReq_hits::.cpu.data       544494                       # number of ReadReq hits
system.cpu.dcache.ReadReq_hits::total          544494                       # number of ReadReq hits
system.cpu.dcache.ReadReq_misses::.cpu.data        33124                       # number of ReadReq misses
system.cpu.dcache.ReadReq_misses::total         33124                       # number of ReadReq misses
system.cpu.dcache.ReadReq_miss_latency::.cpu.data   1604729200                       # number of ReadReq miss cycles
system.cpu.dcache.ReadReq_miss_latency::total   1604729200                       # number of ReadReq miss cycles
system.cpu.dcache.ReadReq_accesses::.cpu.data       577618                       # number of ReadReq accesses(hits+misses)
system.cpu.dcache.ReadReq_accesses::total       577618                       # number of ReadReq accesses(hits+misses)
system.cpu.dcache.ReadReq_miss_rate::.cpu.data     0.057346                       # miss rate for ReadReq accesses
system.cpu.dcache.ReadReq_miss_rate::total     0.057346                       # miss rate for ReadReq accesses
system.cpu.dcache.ReadReq_avg_miss_latency::.cpu.data 48446.117619                       # average ReadReq miss latency
system.cpu.dcache.ReadReq_avg_miss_latency::total 48446.117619                       # average ReadReq miss latency
system.cpu.dcache.ReadReq_mshr_hits::.cpu.data        22511                       # number of ReadReq MSHR hits
system.cpu.dcache.ReadReq_mshr_hits::total        22511                       # number of ReadReq MSHR hits
system.cpu.dcache.ReadReq_mshr_misses::.cpu.data        10613                       # number of ReadReq MSHR misses
system.cpu.dcache.ReadReq_mshr_misses::total        10613                       # number of ReadReq MSHR misses
system.cpu.dcache.ReadReq_mshr_miss_latency::.cpu.data    481895200                       # number of ReadReq MSHR miss cycles
system.cpu.dcache.ReadReq_mshr_miss_latency::total    481895200                       # number of ReadReq MSHR miss cycles
system.cpu.dcache.ReadReq_mshr_miss_rate::.cpu.data     0.018374                       # mshr miss rate for ReadReq accesses
system.cpu.dcache.ReadReq_mshr_miss_rate::total     0.018374                       # mshr miss rate for ReadReq accesses
system.cpu.dcache.ReadReq_avg_mshr_miss_latency::.cpu.data 45406.124564                       # average ReadReq mshr miss latency
system.cpu.dcache.ReadReq_avg_mshr_miss_latency::total 45406.124564                       # average ReadReq mshr miss latency
system.cpu.dcache.WriteReq_hits::.cpu.data       188578                       # number of WriteReq hits
system.cpu.dcache.WriteReq_hits::total         188578                       # number of WriteReq hits
system.cpu.dcache.WriteReq_misses::.cpu.data         2083                       # number of WriteReq misses
system.cpu.dcache.WriteReq_misses::total         2083                       # number of WriteReq misses
system.cpu.dcache.WriteReq_miss_latency::.cpu.data    103257200                       # number of WriteReq miss cycles
system.cpu.dcache.WriteReq_miss_latency::total    103257200                       # number of WriteReq miss cycles
system.cpu.dcache.WriteReq_accesses::.cpu.data       190661                       # number of WriteReq accesses(hits+misses)
system.cpu.dcache.WriteReq_accesses::total       190661                       # number of WriteReq accesses(hits+misses)
system.cpu.dcache.WriteReq_miss_rate::.cpu.data     0.010925                       # miss rate for WriteReq accesses
system.cpu.dcache.WriteReq_miss_rate::total     0.010925                       # miss rate for WriteReq accesses
system.cpu.dcache.WriteReq_avg_miss_latency::.cpu.data 49571.387422                       # average WriteReq miss latency
system.cpu.dcache.WriteReq_avg_miss_latency::total 49571.387422                       # average WriteReq miss latency
system.cpu.dcache.WriteReq_mshr_hits::.cpu.data           35                       # number of WriteReq MSHR hits
system.cpu.dcache.WriteReq_mshr_hits::total           35                       # number of WriteReq MSHR hits
system.cpu.dcache.WriteReq_mshr_misses::.cpu.data         2048                       # number of WriteReq MSHR misses
system.cpu.dcache.WriteReq_mshr_misses::total         2048                       # number of WriteReq MSHR misses
[...]
system.l2cache.demand_mshr_misses::.cpu.data           79                       # number of demand (read+write) MSHR misses
system.l2cache.demand_mshr_misses::.cpu.dcache.prefetcher           20                       # number of demand (read+write) MSHR misses
system.l2cache.demand_mshr_misses::total          257                       # number of demand (read+write) MSHR misses
system.l2cache.overall_mshr_misses::.cpu.inst          158                       # number of overall MSHR misses
system.l2cache.overall_mshr_misses::.cpu.data           79                       # number of overall MSHR misses
system.l2cache.overall_mshr_misses::.cpu.dcache.prefetcher           20                       # number of overall MSHR misses
system.l2cache.overall_mshr_misses::total          257                       # number of overall MSHR misses
system.l2cache.demand_mshr_miss_latency::.cpu.inst      9266400                       # number of demand (read+write) MSHR miss cycles
system.l2cache.demand_mshr_miss_latency::.cpu.data      4645600                       # number of demand (read+write) MSHR miss cycles
system.l2cache.demand_mshr_miss_latency::.cpu.dcache.prefetcher      1334379                       # number of demand (read+write) MSHR miss cycles
system.l2cache.demand_mshr_miss_latency::total     15246379                       # number of demand (read+write) MSHR miss cycles
system.l2cache.overall_mshr_miss_latency::.cpu.inst      9266400                       # number of overall MSHR miss cycles
system.l2cache.overall_mshr_miss_latency::.cpu.data      4645600                       # number of overall MSHR miss cycles
system.l2cache.overall_mshr_miss_latency::.cpu.dcache.prefetcher      1334379                       # number of overall MSHR miss cycles
system.l2cache.overall_mshr_miss_latency::total     15246379                       # number of overall MSHR miss cycles
system.l2cache.demand_mshr_miss_rate::.cpu.inst     0.369159                       # mshr miss rate for demand accesses
system.l2cache.demand_mshr_miss_rate::.cpu.data     0.526667                       # mshr miss rate for demand accesses
system.l2cache.demand_mshr_miss_rate::.cpu.dcache.prefetcher     0.714286                       # mshr miss rate for demand accesses
system.l2cache.demand_mshr_miss_rate::total     0.424092                       # mshr miss rate for demand accesses
system.l2cache.overall_mshr_miss_rate::.cpu.inst     0.369159                       # mshr miss rate for overall accesses
system.l2cache.overall_mshr_miss_rate::.cpu.data     0.526667                       # mshr miss rate for overall accesses
system.l2cache.overall_mshr_miss_rate::.cpu.dcache.prefetcher     0.714286                       # mshr miss rate for overall accesses
system.l2cache.overall_mshr_miss_rate::total     0.424092                       # mshr miss rate for overall accesses
system.l2cache.demand_avg_mshr_miss_latency::.cpu.inst 58648.101266                       # average overall mshr miss latency
system.l2cache.demand_avg_mshr_miss_latency::.cpu.data 58805.063291                       # average overall mshr miss latency
system.l2cache.demand_avg_mshr_miss_latency::.cpu.dcache.prefetcher 66718.950000                       # average overall mshr miss latency
system.l2cache.demand_avg_mshr_miss_latency::total 59324.431907                       # average overall mshr miss latency
system.l2cache.overall_avg_mshr_miss_latency::.cpu.inst 58648.101266                       # average overall mshr miss latency
system.l2cache.overall_avg_mshr_miss_latency::.cpu.data 58805.063291                       # average overall mshr miss latency
system.l2cache.overall_avg_mshr_miss_latency::.cpu.dcache.prefetcher 66718.950000                       # average overall mshr miss latency
system.l2cache.overall_avg_mshr_miss_latency::total 59324.431907                       # average overall mshr miss latency
system.l2cache.replacements                       262                       # number of replacements
system.l2cache.WritebackDirty_hits::.writebacks           44                       # number of WritebackDirty hits
system.l2cache.WritebackDirty_hits::total           44                       # number of WritebackDirty hits
system.l2cache.WritebackDirty_accesses::.writebacks           44                       # number of WritebackDirty accesses(hits+misses)
system.l2cache.WritebackDirty_accesses::total           44                       # number of WritebackDirty accesses(hits+misses)
system.l2cache.CleanEvict_mshr_misses::.writebacks            7                       # number of CleanEvict MSHR misses
system.l2cache.CleanEvict_mshr_misses::total            7                       # number of CleanEvict MSHR misses
system.l2cache.CleanEvict_mshr_miss_rate::.writebacks          inf                       # mshr miss rate for CleanEvict accesses
system.l2cache.CleanEvict_mshr_miss_rate::total          inf                       # mshr miss rate for CleanEvict accesses
system.l2cache.ReadExReq_hits::.cpu.data            3                       # number of ReadExReq hits
system.l2cache.ReadExReq_hits::total                3                       # number of ReadExReq hits
system.l2cache.ReadExReq_misses::.cpu.data            4                       # number of ReadExReq misses
system.l2cache.ReadExReq_misses::total              4                       # number of ReadExReq misses
system.l2cache.ReadExReq_miss_latency::.cpu.data       267200                       # number of ReadExReq miss cycles
system.l2cache.ReadExReq_miss_latency::total       267200                       # number of ReadExReq miss cycles
system.l2cache.ReadExReq_accesses::.cpu.data            7                       # number of ReadExReq accesses(hits+misses)
system.l2cache.ReadExReq_accesses::total            7                       # number of ReadExReq accesses(hits+misses)
system.l2cache.ReadExReq_miss_rate::.cpu.data     0.571429                       # miss rate for ReadExReq accesses
system.l2cache.ReadExReq_miss_rate::total     0.571429                       # miss rate for ReadExReq accesses
system.l2cache.ReadExReq_avg_miss_latency::.cpu.data        66800                       # average ReadExReq miss latency
system.l2cache.ReadExReq_avg_miss_latency::total        66800                       # average ReadExReq miss latency
system.l2cache.ReadExReq_mshr_misses::.cpu.data            4                       # number of ReadExReq MSHR misses
system.l2cache.ReadExReq_mshr_misses::total            4                       # number of ReadExReq MSHR misses
system.l2cache.ReadExReq_mshr_miss_latency::.cpu.data       235200                       # number of ReadExReq MSHR miss cycles
system.l2cache.ReadExReq_mshr_miss_latency::total       235200                       # number of ReadExReq MSHR miss cycles
system.l2cache.ReadExReq_mshr_miss_rate::.cpu.data     0.571429                       # mshr miss rate for ReadExReq accesses
system.l2cache.ReadExReq_mshr_miss_rate::total     0.571429                       # mshr miss rate for ReadExReq accesses
system.l2cache.ReadExReq_avg_mshr_miss_latency::.cpu.data        58800                       # average ReadExReq mshr miss latency
system.l2cache.ReadExReq_avg_mshr_miss_latency::total        58800                       # average ReadExReq mshr miss latency
system.l2cache.ReadSharedReq_hits::.cpu.inst          270                       # number of ReadSharedReq hits
system.l2cache.ReadSharedReq_hits::.cpu.data           68                       # number of ReadSharedReq hits
system.l2cache.ReadSharedReq_hits::.cpu.dcache.prefetcher            8                       # number of ReadSharedReq hits
system.l2cache.ReadSharedReq_hits::total          346                       # number of ReadSharedReq hits
system.l2cache.ReadSharedReq_misses::.cpu.inst          158                       # number of ReadSharedReq misses
system.l2cache.ReadSharedReq_misses::.cpu.data           75                       # number of ReadSharedReq misses
system.l2cache.ReadSharedReq_misses::.cpu.dcache.prefetcher           20                       # number of ReadSharedReq misses
system.l2cache.ReadSharedReq_misses::total          253                       # number of ReadSharedReq misses
system.l2cache.ReadSharedReq_miss_latency::.cpu.inst     10522400                       # number of ReadSharedReq miss cycles
system.l2cache.ReadSharedReq_miss_latency::.cpu.data      5010400                       # number of ReadSharedReq miss cycles
system.l2cache.ReadSharedReq_miss_latency::.cpu.dcache.prefetcher      1494379                       # number of ReadSharedReq miss cycles
system.l2cache.ReadSharedReq_miss_latency::total     17027179                       # number of ReadSharedReq miss cycles
system.l2cache.ReadSharedReq_accesses::.cpu.inst          428                       # number of ReadSharedReq accesses(hits+misses)
system.l2cache.ReadSharedReq_accesses::.cpu.data          143                       # number of ReadSharedReq accesses(hits+misses)
system.l2cache.ReadSharedReq_accesses::.cpu.dcache.prefetcher           28                       # number of ReadSharedReq accesses(hits+misses)
system.l2cache.ReadSharedReq_accesses::total          599                       # number of ReadSharedReq accesses(hits+misses)
system.l2cache.ReadSharedReq_miss_rate::.cpu.inst     0.369159                       # miss rate for ReadSharedReq accesses
system.l2cache.ReadSharedReq_miss_rate::.cpu.data     0.524476                       # miss rate for ReadSharedReq accesses
system.l2cache.ReadSharedReq_miss_rate::.cpu.dcache.prefetcher     0.714286                       # miss rate for ReadSharedReq accesses
system.l2cache.ReadSharedReq_miss_rate::total     0.422371                       # miss rate for ReadSharedReq accesses
system.l2cache.ReadSharedReq_avg_miss_latency::.cpu.inst 66597.468354                       # average ReadSharedReq miss latency
system.l2cache.ReadSharedReq_avg_miss_latency::.cpu.data 66805.333333                       # average ReadSharedReq miss latency
system.l2cache.ReadSharedReq_avg_miss_latency::.cpu.dcache.prefetcher 74718.950000                       # average ReadSharedReq miss latency
system.l2cache.ReadSharedReq_avg_miss_latency::total 67301.102767                       # average ReadSharedReq miss latency
system.l2cache.ReadSharedReq_mshr_misses::.cpu.inst          158                       # number of ReadSharedReq MSHR misses
system.l2cache.ReadSharedReq_mshr_misses::.cpu.data           75                       # number of ReadSharedReq MSHR misses
system.l2cache.ReadSharedReq_mshr_misses::.cpu.dcache.prefetcher           20                       # number of ReadSharedReq MSHR misses
system.l2cache.ReadSharedReq_mshr_misses::total          253                       # number of ReadSharedReq MSHR misses
system.l2cache.ReadSharedReq_mshr_miss_latency::.cpu.inst      9266400                       # number of ReadSharedReq MSHR miss cycles
system.l2cache.ReadSharedReq_mshr_miss_latency::.cpu.data      4410400                       # number of ReadSharedReq MSHR miss cycles
system.l2cache.ReadSharedReq_mshr_miss_latency::.cpu.dcache.prefetcher      1334379                       # number of ReadSharedReq MSHR miss cycles
system.l2cache.ReadSharedReq_mshr_miss_latency::total     15011179                       # number of ReadSharedReq MSHR miss cycles
system.l2cache.ReadSharedReq_mshr_miss_rate::.cpu.inst     0.369159                       # mshr miss rate for ReadSharedReq accesses
system.l2cache.ReadSharedReq_mshr_miss_rate::.cpu.data     0.524476                       # mshr miss rate for ReadSharedReq accesses
system.l2cache.ReadSharedReq_mshr_miss_rate::.cpu.dcache.prefetcher     0.714286                       # mshr miss rate for ReadSharedReq accesses
system.l2cache.ReadSharedReq_mshr_miss_rate::total     0.422371                       # mshr miss rate for ReadSharedReq accesses
system.l2cache.ReadSharedReq_avg_mshr_miss_latency::.cpu.inst 58648.101266                       # average ReadSharedReq mshr miss latency
system.l2cache.ReadSharedReq_avg_mshr_miss_latency::.cpu.data 58805.333333                       # average ReadSharedReq mshr miss latency
system.l2cache.ReadSharedReq_avg_mshr_miss_latency::.cpu.dcache.prefetcher 66718.950000                       # average ReadSharedReq mshr miss latency
system.l2cache.ReadSharedReq_avg_mshr_miss_latency::total 59332.723320                       # average ReadSharedReq mshr miss latency
system.l2cache.prefetcher.pwrStateResidencyTicks::UNDEFINED     62499600                       # Cumulative time (in ticks) in various power states
system.l2cache.tags.pwrStateResidencyTicks::UNDEFINED     62499600                       # Cumulative time (in ticks) in various power states
system.l2cache.tags.tagsinuse                    4096                       # Cycle average of tags in use
system.l2cache.tags.total_refs                  13948                       # Total number of references to valid blocks.
system.l2cache.tags.sampled_refs                 4358                       # Sample count of references to valid blocks.
system.l2cache.tags.avg_refs                 3.200551                       # Average number of references to valid blocks.
system.l2cache.tags.warmup_cycle                    0                       # Cycle when the warmup percentage was hit.
system.l2cache.tags.occ_blocks::.writebacks    41.145972                       # Average occupied blocks per requestor
system.l2cache.tags.occ_blocks::.cpu.inst  1142.093090                       # Average occupied blocks per requestor
system.l2cache.tags.occ_blocks::.cpu.data  1847.513916                       # Average occupied blocks per requestor
system.l2cache.tags.occ_blocks::.cpu.dcache.prefetcher   950.102336                       # Average occupied blocks per requestor
system.l2cache.tags.occ_blocks::.l2cache.prefetcher   115.144686                       # Average occupied blocks per requestor
system.l2cache.tags.occ_percent::.writebacks     0.010045                       # Average percentage of cache occupancy
system.l2cache.tags.occ_percent::.cpu.inst     0.278831                       # Average percentage of cache occupancy
system.l2cache.tags.occ_percent::.cpu.data     0.451053                       # Average percentage of cache occupancy
system.l2cache.tags.occ_percent::.cpu.dcache.prefetcher     0.231959                       # Average percentage of cache occupancy
system.l2cache.tags.occ_percent::.l2cache.prefetcher     0.028111                       # Average percentage of cache occupancy
system.l2cache.tags.occ_percent::total              1                       # Average percentage of cache occupancy
system.l2cache.tags.occ_task_id_blocks::1022         1023                       # Occupied blocks per task id
system.l2cache.tags.occ_task_id_blocks::1024         3073                       # Occupied blocks per task id
system.l2cache.tags.age_task_id_blocks_1022::0           10                       # Occupied blocks per task id
system.l2cache.tags.age_task_id_blocks_1022::1           19                       # Occupied blocks per task id
system.l2cache.tags.age_task_id_blocks_1022::2          979                       # Occupied blocks per task id
system.l2cache.tags.age_task_id_blocks_1022::3           15                       # Occupied blocks per task id
system.l2cache.tags.age_task_id_blocks_1024::0          167                       # Occupied blocks per task id
system.l2cache.tags.age_task_id_blocks_1024::1          175                       # Occupied blocks per task id
system.l2cache.tags.age_task_id_blocks_1024::2         2594                       # Occupied blocks per task id
system.l2cache.tags.age_task_id_blocks_1024::3          137                       # Occupied blocks per task id
system.l2cache.tags.occ_task_id_percent::1022     0.249756                       # Percentage of cache occupancy per task id
system.l2cache.tags.occ_task_id_percent::1024     0.750244                       # Percentage of cache occupancy per task id
system.l2cache.tags.tag_accesses                 9950                       # Number of tag accesses
system.l2cache.tags.data_accesses                9950                       # Number of data accesses
system.mem_ctrl.pwrStateResidencyTicks::UNDEFINED     62499600                       # Cumulative time (in ticks) in various power states
system.mem_ctrl.bytes_read::.cpu.inst           10048                       # Number of bytes read from this memory
system.mem_ctrl.bytes_read::.cpu.data            5056                       # Number of bytes read from this memory
system.mem_ctrl.bytes_read::.cpu.dcache.prefetcher         1280                       # Number of bytes read from this memory
system.mem_ctrl.bytes_read::total               16384                       # Number of bytes read from this memory
system.mem_ctrl.bytes_inst_read::.cpu.inst        10048                       # Number of instructions bytes read from this memory
system.mem_ctrl.bytes_inst_read::total          10048                       # Number of instructions bytes read from this memory
system.mem_ctrl.bytes_written::.writebacks         1216                       # Number of bytes written to this memory
system.mem_ctrl.bytes_written::total             1216                       # Number of bytes written to this memory
system.mem_ctrl.num_reads::.cpu.inst              157                       # Number of read requests responded to by this memory
system.mem_ctrl.num_reads::.cpu.data               79                       # Number of read requests responded to by this memory
system.mem_ctrl.num_reads::.cpu.dcache.prefetcher           20                       # Number of read requests responded to by this memory
system.mem_ctrl.num_reads::total                  256                       # Number of read requests responded to by this memory
system.mem_ctrl.num_writes::.writebacks            19                       # Number of write requests responded to by this memory
system.mem_ctrl.num_writes::total                  19                       # Number of write requests responded to by this memory
system.mem_ctrl.bw_read::.cpu.inst          160769029                       # Total read bandwidth from this memory (bytes/s)
system.mem_ctrl.bw_read::.cpu.data           80896518                       # Total read bandwidth from this memory (bytes/s)
system.mem_ctrl.bw_read::.cpu.dcache.prefetcher     20480131                       # Total read bandwidth from this memory (bytes/s)
system.mem_ctrl.bw_read::total              262145678                       # Total read bandwidth from this memory (bytes/s)
system.mem_ctrl.bw_inst_read::.cpu.inst     160769029                       # Instruction read bandwidth from this memory (bytes/s)
system.mem_ctrl.bw_inst_read::total         160769029                       # Instruction read bandwidth from this memory (bytes/s)
system.mem_ctrl.bw_write::.writebacks        19456125                       # Write bandwidth from this memory (bytes/s)
system.mem_ctrl.bw_write::total              19456125                       # Write bandwidth from this memory (bytes/s)
system.mem_ctrl.bw_total::.writebacks        19456125                       # Total bandwidth to/from this memory (bytes/s)
system.mem_ctrl.bw_total::.cpu.inst         160769029                       # Total bandwidth to/from this memory (bytes/s)
system.mem_ctrl.bw_total::.cpu.data          80896518                       # Total bandwidth to/from this memory (bytes/s)
system.mem_ctrl.bw_total::.cpu.dcache.prefetcher     20480131                       # Total bandwidth to/from this memory (bytes/s)
system.mem_ctrl.bw_total::total             281601802                       # Total bandwidth to/from this memory (bytes/s)

---------- End Simulation Statistics   ----------
