
---------- Begin Simulation Statistics ----------
final_tick                                 2607776400                       # Number of ticks from beginning of simulation (restored from checkpoints and never reset)
host_inst_rate                                 211614                       # Simulator instruction rate (inst/s)
host_mem_usage                                4407896                       # Number of bytes of host memory used
host_op_rate                                   424505                       # Simulator op (including micro ops) rate (op/s)
host_seconds                                    35.65                       # Real time elapsed on the host
host_tick_rate                               73150969                       # Simulator tick rate (ticks/s)
sim_freq                                 1000000000000                       # Frequency of simulated ticks
sim_insts                                     7543878                       # Number of instructions simulated
sim_ops                                      15133274                       # Number of ops (including micro ops) simulated
sim_seconds                                  0.002608                       # Number of seconds simulated
sim_ticks                                  2607776400                       # Number of ticks simulated
system.cpu.branchPred.BTBCorrect                    0                       # Number of correct BTB predictions (this stat may not work properly.
system.cpu.branchPred.BTBHitPct              0.000000                       # BTB Hit Percentage
system.cpu.branchPred.BTBHits                       0                       # Number of BTB hits
system.cpu.branchPred.BTBLookups              1558175                       # Number of BTB lookups
system.cpu.branchPred.RASInCorrect                  8                       # Number of incorrect RAS predictions.
system.cpu.branchPred.condIncorrect             41534                       # Number of conditional branches incorrect
system.cpu.branchPred.condPredicted           2238276                       # Number of conditional branches predicted
system.cpu.branchPred.indirectHits            1114842                       # Number of indirect target hits.
system.cpu.branchPred.indirectLookups         1558175                       # Number of indirect predictor lookups.
system.cpu.branchPred.indirectMisses           443333                       # Number of indirect misses.
system.cpu.branchPred.lookups                 2339318                       # Number of BP lookups
system.cpu.branchPred.usedRAS                   48729                       # Number of times the RAS was used to get a target.
system.cpu.branchPredindirectMispredicted        26253                       # Number of mispredicted indirect branches.
system.cpu.cc_regfile_reads                  11551657                       # number of cc regfile reads
system.cpu.cc_regfile_writes                  7320161                       # number of cc regfile writes
system.cpu.commit.amos                              0                       # Number of atomic instructions committed
system.cpu.commit.branchMispredicts             41642                       # The number of times a branch was mispredicted
system.cpu.commit.branches                    2137596                       # Number of branches committed
system.cpu.commit.bw_lim_events               2651711                       # number cycles where commit BW limit reached
system.cpu.commit.commitNonSpecStalls             781                       # The number of times commit has been forced to stall to communicate backwards
system.cpu.commit.commitSquashedInsts         1131854                       # The number of squashed insts skipped by commit
system.cpu.commit.committedInsts              7543878                       # Number of instructions committed
system.cpu.commit.committedOps               15133274                       # Number of ops (including micro ops) committed
system.cpu.commit.committed_per_cycle::samples      6041604                       # Number of insts commited each cycle
system.cpu.commit.committed_per_cycle::mean     2.504844                       # Number of insts commited each cycle
system.cpu.commit.committed_per_cycle::stdev     1.643464                       # Number of insts commited each cycle
system.cpu.commit.committed_per_cycle::underflows            0      0.00%      0.00% # Number of insts commited each cycle
system.cpu.commit.committed_per_cycle::0      1425924     23.60%     23.60% # Number of insts commited each cycle
system.cpu.commit.committed_per_cycle::1       474498      7.85%     31.46% # Number of insts commited each cycle
system.cpu.commit.committed_per_cycle::2       416481      6.89%     38.35% # Number of insts commited each cycle
system.cpu.commit.committed_per_cycle::3      1072990     17.76%     56.11% # Number of insts commited each cycle
system.cpu.commit.committed_per_cycle::4      2651711     43.89%    100.00% # Number of insts commited each cycle
system.cpu.commit.committed_per_cycle::overflows            0      0.00%    100.00% # Number of insts commited each cycle
system.cpu.commit.committed_per_cycle::min_value            0                       # Number of insts commited each cycle
system.cpu.commit.committed_per_cycle::max_value            4                       # Number of insts commited each cycle
system.cpu.commit.committed_per_cycle::total      6041604                       # Number of insts commited each cycle
system.cpu.commit.fp_insts                     240046                       # Number of committed floating point instructions.
system.cpu.commit.function_calls                45348                       # Number of function calls committed.
system.cpu.commit.int_insts                  14936080                       # Number of committed integer instructions.
system.cpu.commit.loads                       1647747                       # Number of loads committed
system.cpu.commit.membars                           1                       # Number of memory barriers committed
system.cpu.commit.op_class_0::No_OpClass        39464      0.26%      0.26% # Class of committed instruction
system.cpu.commit.op_class_0::IntAlu         12733675     84.14%     84.40% # Class of committed instruction
system.cpu.commit.op_class_0::IntMult           14505      0.10%     84.50% # Class of committed instruction
system.cpu.commit.op_class_0::IntDiv            37936      0.25%     84.75% # Class of committed instruction
system.cpu.commit.op_class_0::FloatAdd           8969      0.06%     84.81% # Class of committed instruction
system.cpu.commit.op_class_0::FloatCmp              0      0.00%     84.81% # Class of committed instruction
system.cpu.commit.op_class_0::FloatCvt           1280      0.01%     84.82% # Class of committed instruction
system.cpu.commit.op_class_0::FloatMult             0      0.00%     84.82% # Class of committed instruction
system.cpu.commit.op_class_0::FloatMultAcc            0      0.00%     84.82% # Class of committed instruction
system.cpu.commit.op_class_0::FloatDiv              0      0.00%     84.82% # Class of committed instruction
system.cpu.commit.op_class_0::FloatMisc             0      0.00%     84.82% # Class of committed instruction
system.cpu.commit.op_class_0::FloatSqrt             0      0.00%     84.82% # Class of committed instruction
system.cpu.commit.op_class_0::SimdAdd            6268      0.04%     84.86% # Class of committed instruction
system.cpu.commit.op_class_0::SimdAddAcc            0      0.00%     84.86% # Class of committed instruction
system.cpu.commit.op_class_0::SimdAlu           47266      0.31%     85.17% # Class of committed instruction
system.cpu.commit.op_class_0::SimdCmp               0      0.00%     85.17% # Class of committed instruction
system.cpu.commit.op_class_0::SimdCvt           39238      0.26%     85.43% # Class of committed instruction
system.cpu.commit.op_class_0::SimdMisc          63617      0.42%     85.85% # Class of committed instruction
system.cpu.commit.op_class_0::SimdMult              0      0.00%     85.85% # Class of committed instruction
system.cpu.commit.op_class_0::SimdMultAcc            0      0.00%     85.85% # Class of committed instruction
system.cpu.commit.op_class_0::SimdShift          1144      0.01%     85.86% # Class of committed instruction
system.cpu.commit.op_class_0::SimdShiftAcc            0      0.00%     85.86% # Class of committed instruction
system.cpu.commit.op_class_0::SimdDiv               0      0.00%     85.86% # Class of committed instruction
system.cpu.commit.op_class_0::SimdSqrt              0      0.00%     85.86% # Class of committed instruction
system.cpu.commit.op_class_0::SimdFloatAdd            0      0.00%     85.86% # Class of committed instruction
system.cpu.commit.op_class_0::SimdFloatAlu            0      0.00%     85.86% # Class of committed instruction
system.cpu.commit.op_class_0::SimdFloatCmp            0      0.00%     85.86% # Class of committed instruction
system.cpu.commit.op_class_0::SimdFloatCvt            0      0.00%     85.86% # Class of committed instruction
system.cpu.commit.op_class_0::SimdFloatDiv            0      0.00%     85.86% # Class of committed instruction
system.cpu.commit.op_class_0::SimdFloatMisc            0      0.00%     85.86% # Class of committed instruction
system.cpu.commit.op_class_0::SimdFloatMult            0      0.00%     85.86% # Class of committed instruction
system.cpu.commit.op_class_0::SimdFloatMultAcc            0      0.00%     85.86% # Class of committed instruction
system.cpu.commit.op_class_0::SimdFloatSqrt            0      0.00%     85.86% # Class of committed instruction
system.cpu.commit.op_class_0::SimdReduceAdd            0      0.00%     85.86% # Class of committed instruction
system.cpu.commit.op_class_0::SimdReduceAlu            0      0.00%     85.86% # Class of committed instruction
system.cpu.commit.op_class_0::SimdReduceCmp            0      0.00%     85.86% # Class of committed instruction
system.cpu.commit.op_class_0::SimdFloatReduceAdd            0      0.00%     85.86% # Class of committed instruction
system.cpu.commit.op_class_0::SimdFloatReduceCmp            0      0.00%     85.86% # Class of committed instruction
system.cpu.commit.op_class_0::SimdAes               0      0.00%     85.86% # Class of committed instruction
system.cpu.commit.op_class_0::SimdAesMix            0      0.00%     85.86% # Class of committed instruction
system.cpu.commit.op_class_0::SimdSha1Hash            0      0.00%     85.86% # Class of committed instruction
system.cpu.commit.op_class_0::SimdSha1Hash2            0      0.00%     85.86% # Class of committed instruction
system.cpu.commit.op_class_0::SimdSha256Hash            0      0.00%     85.86% # Class of committed instruction
system.cpu.commit.op_class_0::SimdSha256Hash2            0      0.00%     85.86% # Class of committed instruction
system.cpu.commit.op_class_0::SimdShaSigma2            0      0.00%     85.86% # Class of committed instruction
system.cpu.commit.op_class_0::SimdShaSigma3            0      0.00%     85.86% # Class of committed instruction
system.cpu.commit.op_class_0::SimdPredAlu            0      0.00%     85.86% # Class of committed instruction
system.cpu.commit.op_class_0::MemRead         1610333     10.64%     96.50% # Class of committed instruction
system.cpu.commit.op_class_0::MemWrite         476140      3.15%     99.65% # Class of committed instruction
system.cpu.commit.op_class_0::FloatMemRead        37414      0.25%     99.89% # Class of committed instruction
system.cpu.commit.op_class_0::FloatMemWrite        16025      0.11%    100.00% # Class of committed instruction
system.cpu.commit.op_class_0::IprAccess             0      0.00%    100.00% # Class of committed instruction
system.cpu.commit.op_class_0::InstPrefetch            0      0.00%    100.00% # Class of committed instruction
system.cpu.commit.op_class_0::total          15133274                       # Class of committed instruction
system.cpu.commit.refs                        2139912                       # Number of memory references committed
system.cpu.commit.swp_count                         0                       # Number of s/w prefetches committed
system.cpu.commit.vec_insts                         0                       # Number of committed Vector instructions.
system.cpu.committedInsts                     7543878                       # Number of Instructions Simulated
system.cpu.committedOps                      15133274                       # Number of Ops (including micro ops) Simulated
system.cpu.cpi                               0.864203                       # CPI: Cycles Per Instruction
system.cpu.cpi_total                         0.864203                       # CPI: Total CPI of All Threads
system.cpu.dcache.prefetcher.num_hwpf_issued         8293                       # number of hwpf issued
system.cpu.dcache.prefetcher.pfBufferHit        33718                       # number of redundant prefetches already in prefetch queue
system.cpu.dcache.prefetcher.pfIdentified        49447                       # number of prefetch candidates identified
system.cpu.dcache.prefetcher.pfInCache              0                       # number of redundant prefetches already in cache/mshr dropped
system.cpu.dcache.prefetcher.pfRemovedFull            0                       # number of prefetches dropped due to prefetch queue size
system.cpu.dcache.prefetcher.pfSpanPage          4793                       # number of prefetches that crossed the page
system.cpu.decode.BlockedCycles               1099243                       # Number of cycles decode is blocked
system.cpu.decode.DecodedInsts               16626264                       # Number of instructions handled by decode
system.cpu.decode.IdleCycles                   695197                       # Number of cycles decode is idle
system.cpu.decode.RunCycles                   4412410                       # Number of cycles decode is running
system.cpu.decode.SquashCycles                  41729                       # Number of cycles decode is squashing
system.cpu.decode.UnblockCycles                103989                       # Number of cycles decode is unblocking
system.cpu.dtb.rdAccesses                     1751528                       # TLB accesses on read requests
system.cpu.dtb.rdMisses                          2047                       # TLB misses on read requests
system.cpu.dtb.wrAccesses                      525932                       # TLB accesses on write requests
system.cpu.dtb.wrMisses                           174                       # TLB misses on write requests
system.cpu.fetch.Branches                     2339318                       # Number of branches that fetch encountered
system.cpu.fetch.CacheLines                    595193                       # Number of cache lines fetched
system.cpu.fetch.Cycles                       5602640                       # Number of cycles fetch has run and was not squashing or blocked
system.cpu.fetch.IcacheSquashes                  5756                       # Number of outstanding Icache misses that were squashed
system.cpu.fetch.Insts                        8536500                       # Number of instructions fetch has processed
system.cpu.fetch.MiscStallCycles                  137                       # Number of cycles fetch has spent waiting on interrupts, or bad addresses, or out of MSHRs
system.cpu.fetch.PendingQuiesceStallCycles            8                       # Number of stall cycles due to pending quiesce instructions
system.cpu.fetch.PendingTrapStallCycles           748                       # Number of stall cycles due to pending traps
system.cpu.fetch.SquashCycles                   83458                       # Number of cycles fetch has spent squashing
system.cpu.fetch.branchRate                  0.358822                       # Number of branch fetches per cycle
system.cpu.fetch.icacheStallCycles             707306                       # Number of cycles fetch is stalled on an Icache miss
system.cpu.fetch.predictedBranches            1163571                       # Number of branches that fetch has predicted taken
system.cpu.fetch.rate                        1.309391                       # Number of inst fetches per cycle
system.cpu.fetch.rateDist::samples            6352568                       # Number of instructions fetched each cycle (Total)
system.cpu.fetch.rateDist::mean              2.669074                       # Number of instructions fetched each cycle (Total)
system.cpu.fetch.rateDist::stdev             1.728891                       # Number of instructions fetched each cycle (Total)
system.cpu.fetch.rateDist::underflows               0      0.00%      0.00% # Number of instructions fetched each cycle (Total)
system.cpu.fetch.rateDist::0                  1692050     26.64%     26.64% # Number of instructions fetched each cycle (Total)
system.cpu.fetch.rateDist::1                   208287      3.28%     29.91% # Number of instructions fetched each cycle (Total)
system.cpu.fetch.rateDist::2                   115908      1.82%     31.74% # Number of instructions fetched each cycle (Total)
system.cpu.fetch.rateDist::3                   829924     13.06%     44.80% # Number of instructions fetched each cycle (Total)
system.cpu.fetch.rateDist::4                  3506399     55.20%    100.00% # Number of instructions fetched each cycle (Total)
system.cpu.fetch.rateDist::overflows                0      0.00%    100.00% # Number of instructions fetched each cycle (Total)
system.cpu.fetch.rateDist::min_value                0                       # Number of instructions fetched each cycle (Total)
system.cpu.fetch.rateDist::max_value                4                       # Number of instructions fetched each cycle (Total)
system.cpu.fetch.rateDist::total              6352568                       # Number of instructions fetched each cycle (Total)
system.cpu.fp_regfile_reads                    414081                       # number of floating regfile reads
system.cpu.fp_regfile_writes                   213927                       # number of floating regfile writes
system.cpu.fuPool.fu_ticks_busy::IntALU(0)    885968000                       # Total ticks fu was busy
system.cpu.fuPool.fu_ticks_busy::IntALU(1)    885968000                       # Total ticks fu was busy
system.cpu.fuPool.fu_ticks_busy::IntALU(2)    885968000                       # Total ticks fu was busy
system.cpu.fuPool.fu_ticks_busy::IntALU(3)    885967600                       # Total ticks fu was busy
system.cpu.fuPool.fu_ticks_busy::IntALU(4)    885967600                       # Total ticks fu was busy
system.cpu.fuPool.fu_ticks_busy::IntALU(5)    885967600                       # Total ticks fu was busy
system.cpu.fuPool.fu_ticks_busy::IntMultDiv(0)     11266000                       # Total ticks fu was busy
system.cpu.fuPool.fu_ticks_busy::IntMultDiv(1)     11265600                       # Total ticks fu was busy
system.cpu.fuPool.fu_ticks_busy::FP_ALU(0)      1182800                       # Total ticks fu was busy
system.cpu.fuPool.fu_ticks_busy::FP_ALU(1)      1182400                       # Total ticks fu was busy
system.cpu.fuPool.fu_ticks_busy::FP_ALU(2)      1182000                       # Total ticks fu was busy
system.cpu.fuPool.fu_ticks_busy::FP_ALU(3)      1182000                       # Total ticks fu was busy
system.cpu.fuPool.fu_ticks_busy::FP_MultDiv(0)            0                       # Total ticks fu was busy
system.cpu.fuPool.fu_ticks_busy::FP_MultDiv(1)            0                       # Total ticks fu was busy
system.cpu.fuPool.fu_ticks_busy::SIMD_Unit(0)     16926000                       # Total ticks fu was busy
system.cpu.fuPool.fu_ticks_busy::SIMD_Unit(1)     15746400                       # Total ticks fu was busy
system.cpu.fuPool.fu_ticks_busy::SIMD_Unit(2)     16762400                       # Total ticks fu was busy
system.cpu.fuPool.fu_ticks_busy::SIMD_Unit(3)     16738400                       # Total ticks fu was busy
system.cpu.fuPool.fu_ticks_busy::PredALU(0)            0                       # Total ticks fu was busy
system.cpu.fuPool.fu_ticks_busy::RdWrPort(0)    230658000                       # Total ticks fu was busy
system.cpu.fuPool.fu_ticks_busy::RdWrPort(1)    230699200                       # Total ticks fu was busy
system.cpu.fuPool.fu_ticks_busy::RdWrPort(2)    230675600                       # Total ticks fu was busy
system.cpu.fuPool.fu_ticks_busy::RdWrPort(3)    230690800                       # Total ticks fu was busy
system.cpu.fuPool.fu_ticks_busy::IprPort(0)            0                       # Total ticks fu was busy
system.cpu.fuPool.fu_ticks_busy::total     6331964400                       # Total ticks fu was busy
system.cpu.icache.prefetcher.num_hwpf_issued            0                       # number of hwpf issued
system.cpu.icache.prefetcher.pfBufferHit            0                       # number of redundant prefetches already in prefetch queue
system.cpu.icache.prefetcher.pfIdentified            0                       # number of prefetch candidates identified
system.cpu.icache.prefetcher.pfInCache              0                       # number of redundant prefetches already in cache/mshr dropped
system.cpu.icache.prefetcher.pfRemovedFull            0                       # number of prefetches dropped due to prefetch queue size
system.cpu.icache.prefetcher.pfSpanPage             0                       # number of prefetches that crossed the page
system.cpu.idleCycles                          166874                       # Total number of cycles that the CPU has spent unscheduled due to idling
system.cpu.iew.branchMispredicts                49950                       # Number of branch mispredicts detected at execute
system.cpu.iew.exec_branches                  2176933                       # Number of branches executed
system.cpu.iew.exec_nop                             0                       # number of nop insts executed
system.cpu.iew.exec_rate                     2.425161                       # Inst execution rate
system.cpu.iew.exec_refs                      2278622                       # number of memory reference insts executed
system.cpu.iew.exec_stores                     525448                       # Number of stores executed
system.cpu.iew.exec_swp                             0                       # number of swp insts executed
system.cpu.iew.iewBlockCycles                  750496                       # Number of cycles IEW is blocking
system.cpu.iew.iewDispLoadInsts               1797847                       # Number of dispatched load instructions
system.cpu.iew.iewDispNonSpecInsts               1313                       # Number of dispatched non-speculative instructions
system.cpu.iew.iewDispSquashedInsts              3472                       # Number of squashed instructions skipped by dispatch
system.cpu.iew.iewDispStoreInsts               552580                       # Number of dispatched store instructions
system.cpu.iew.iewDispatchedInsts            16265082                       # Number of instructions dispatched to IQ
system.cpu.iew.iewExecLoadInsts               1753174                       # Number of load instructions executed
system.cpu.iew.iewExecSquashedInsts             71327                       # Number of squashed instructions skipped in execute
system.cpu.iew.iewExecutedInsts              15810696                       # Number of executed instructions
system.cpu.iew.iewIQFullEvents                   3387                       # Number of times the IQ has become full, causing a stall
system.cpu.iew.iewIdleCycles                        0                       # Number of cycles IEW is idle
system.cpu.iew.iewLSQFullEvents                 12280                       # Number of times the LSQ has become full, causing a stall
system.cpu.iew.iewSquashCycles                  41729                       # Number of cycles IEW is squashing
system.cpu.iew.iewUnblockCycles                 18550                       # Number of cycles IEW is unblocking
system.cpu.iew.lsq.thread0.blockedLoads             0                       # Number of blocked loads due to partial load-store forwarding
system.cpu.iew.lsq.thread0.cacheBlocked           590                       # Number of times an access to memory failed due to the cache being blocked
system.cpu.iew.lsq.thread0.forwLoads            59061                       # Number of loads that had data forwarded from stores
system.cpu.iew.lsq.thread0.ignoredResponses          262                       # Number of memory responses ignored because the instruction is squashed
system.cpu.iew.lsq.thread0.invAddrLoads             0                       # Number of loads ignored due to an invalid address
system.cpu.iew.lsq.thread0.invAddrSwpfs             0                       # Number of software prefetches ignored due to an invalid address
system.cpu.iew.lsq.thread0.memOrderViolation           97                       # Number of memory ordering violations
system.cpu.iew.lsq.thread0.rescheduledLoads           34                       # Number of loads that were rescheduled
system.cpu.iew.lsq.thread0.squashedLoads       150098                       # Number of loads squashed
system.cpu.iew.lsq.thread0.squashedStores        60414                       # Number of stores squashed
system.cpu.iew.memOrderViolationEvents             97                       # Number of memory order violations
system.cpu.iew.predictedNotTakenIncorrect        36667                       # Number of branches that were predicted not taken incorrectly
system.cpu.iew.predictedTakenIncorrect          13283                       # Number of branches that were predicted taken incorrectly
system.cpu.iew.wb_consumers                  18685990                       # num instructions consuming a value
system.cpu.iew.wb_count                      15779686                       # cumulative count of insts written-back
system.cpu.iew.wb_fanout                     0.658720                       # average fanout of values written-back
system.cpu.iew.wb_producers                  12308838                       # num instructions producing a value
system.cpu.iew.wb_rate                       2.420404                       # insts written-back per cycle
system.cpu.iew.wb_sent                       15789052                       # cumulative count of insts sent to commit
system.cpu.int_regfile_reads                 20861835                       # number of integer regfile reads
system.cpu.int_regfile_writes                12938694                       # number of integer regfile writes
system.cpu.ipc                               1.157136                       # IPC: Instructions Per Cycle
system.cpu.ipc_total                         1.157136                       # IPC: Total IPC of All Threads
system.cpu.iq.FU_type_0::No_OpClass             52112      0.33%      0.33% # Type of FU issued
system.cpu.iq.FU_type_0::IntAlu              13289518     83.68%     84.00% # Type of FU issued
system.cpu.iq.FU_type_0::IntMult                14573      0.09%     84.10% # Type of FU issued
system.cpu.iq.FU_type_0::IntDiv                 41756      0.26%     84.36% # Type of FU issued
system.cpu.iq.FU_type_0::FloatAdd               10497      0.07%     84.43% # Type of FU issued
system.cpu.iq.FU_type_0::FloatCmp                   0      0.00%     84.43% # Type of FU issued
system.cpu.iq.FU_type_0::FloatCvt                1326      0.01%     84.43% # Type of FU issued
system.cpu.iq.FU_type_0::FloatMult                  0      0.00%     84.43% # Type of FU issued
system.cpu.iq.FU_type_0::FloatMultAcc               0      0.00%     84.43% # Type of FU issued
system.cpu.iq.FU_type_0::FloatDiv                   0      0.00%     84.43% # Type of FU issued
system.cpu.iq.FU_type_0::FloatMisc                  0      0.00%     84.43% # Type of FU issued
system.cpu.iq.FU_type_0::FloatSqrt                  0      0.00%     84.43% # Type of FU issued
system.cpu.iq.FU_type_0::SimdAdd                 6927      0.04%     84.48% # Type of FU issued
system.cpu.iq.FU_type_0::SimdAddAcc                 0      0.00%     84.48% # Type of FU issued
system.cpu.iq.FU_type_0::SimdAlu                51030      0.32%     84.80% # Type of FU issued
system.cpu.iq.FU_type_0::SimdCmp                    0      0.00%     84.80% # Type of FU issued
system.cpu.iq.FU_type_0::SimdCvt                41022      0.26%     85.06% # Type of FU issued
system.cpu.iq.FU_type_0::SimdMisc               64219      0.40%     85.46% # Type of FU issued
system.cpu.iq.FU_type_0::SimdMult                   0      0.00%     85.46% # Type of FU issued
system.cpu.iq.FU_type_0::SimdMultAcc                0      0.00%     85.46% # Type of FU issued
system.cpu.iq.FU_type_0::SimdShift               2235      0.01%     85.48% # Type of FU issued
system.cpu.iq.FU_type_0::SimdShiftAcc               0      0.00%     85.48% # Type of FU issued
system.cpu.iq.FU_type_0::SimdDiv                    0      0.00%     85.48% # Type of FU issued
system.cpu.iq.FU_type_0::SimdSqrt                   0      0.00%     85.48% # Type of FU issued
system.cpu.iq.FU_type_0::SimdFloatAdd               0      0.00%     85.48% # Type of FU issued
system.cpu.iq.FU_type_0::SimdFloatAlu               0      0.00%     85.48% # Type of FU issued
system.cpu.iq.FU_type_0::SimdFloatCmp               0      0.00%     85.48% # Type of FU issued
system.cpu.iq.FU_type_0::SimdFloatCvt               0      0.00%     85.48% # Type of FU issued
system.cpu.iq.FU_type_0::SimdFloatDiv               0      0.00%     85.48% # Type of FU issued
system.cpu.iq.FU_type_0::SimdFloatMisc              0      0.00%     85.48% # Type of FU issued
system.cpu.iq.FU_type_0::SimdFloatMult              0      0.00%     85.48% # Type of FU issued
system.cpu.iq.FU_type_0::SimdFloatMultAcc            0      0.00%     85.48% # Type of FU issued
system.cpu.iq.FU_type_0::SimdFloatSqrt              0      0.00%     85.48% # Type of FU issued
system.cpu.iq.FU_type_0::SimdReduceAdd              0      0.00%     85.48% # Type of FU issued
system.cpu.iq.FU_type_0::SimdReduceAlu              0      0.00%     85.48% # Type of FU issued
system.cpu.iq.FU_type_0::SimdReduceCmp              0      0.00%     85.48% # Type of FU issued
system.cpu.iq.FU_type_0::SimdFloatReduceAdd            0      0.00%     85.48% # Type of FU issued
system.cpu.iq.FU_type_0::SimdFloatReduceCmp            0      0.00%     85.48% # Type of FU issued
system.cpu.iq.FU_type_0::SimdAes                    0      0.00%     85.48% # Type of FU issued
system.cpu.iq.FU_type_0::SimdAesMix                 0      0.00%     85.48% # Type of FU issued
system.cpu.iq.FU_type_0::SimdSha1Hash               0      0.00%     85.48% # Type of FU issued
system.cpu.iq.FU_type_0::SimdSha1Hash2              0      0.00%     85.48% # Type of FU issued
system.cpu.iq.FU_type_0::SimdSha256Hash             0      0.00%     85.48% # Type of FU issued
system.cpu.iq.FU_type_0::SimdSha256Hash2            0      0.00%     85.48% # Type of FU issued
system.cpu.iq.FU_type_0::SimdShaSigma2              0      0.00%     85.48% # Type of FU issued
system.cpu.iq.FU_type_0::SimdShaSigma3              0      0.00%     85.48% # Type of FU issued
system.cpu.iq.FU_type_0::SimdPredAlu                0      0.00%     85.48% # Type of FU issued
system.cpu.iq.FU_type_0::MemRead              1726115     10.87%     96.34% # Type of FU issued
system.cpu.iq.FU_type_0::MemWrite              508547      3.20%     99.55% # Type of FU issued
system.cpu.iq.FU_type_0::FloatMemRead           43741      0.28%     99.82% # Type of FU issued
system.cpu.iq.FU_type_0::FloatMemWrite          28408      0.18%    100.00% # Type of FU issued
system.cpu.iq.FU_type_0::IprAccess                  0      0.00%    100.00% # Type of FU issued
system.cpu.iq.FU_type_0::InstPrefetch               0      0.00%    100.00% # Type of FU issued
system.cpu.iq.FU_type_0::total               15882026                       # Type of FU issued
system.cpu.iq.fp_alu_accesses                  268394                       # Number of floating point alu accesses
system.cpu.iq.fp_inst_queue_reads              539183                       # Number of floating instruction queue reads
system.cpu.iq.fp_inst_queue_wakeup_accesses       260672                       # Number of floating instruction queue wakeup accesses
system.cpu.iq.fp_inst_queue_writes             324270                       # Number of floating instruction queue writes
system.cpu.iq.fu_busy_cnt                           0                       # FU busy when requested
system.cpu.iq.fu_busy_rate                          0                       # FU busy rate (busy events/executed inst)
system.cpu.iq.fu_full::No_OpClass                   0                       # attempts to use FU when none available
system.cpu.iq.fu_full::IntAlu                       0                       # attempts to use FU when none available
system.cpu.iq.fu_full::IntMult                      0                       # attempts to use FU when none available
system.cpu.iq.fu_full::IntDiv                       0                       # attempts to use FU when none available
system.cpu.iq.fu_full::FloatAdd                     0                       # attempts to use FU when none available
system.cpu.iq.fu_full::FloatCmp                     0                       # attempts to use FU when none available
system.cpu.iq.fu_full::FloatCvt                     0                       # attempts to use FU when none available
system.cpu.iq.fu_full::FloatMult                    0                       # attempts to use FU when none available
system.cpu.iq.fu_full::FloatMultAcc                 0                       # attempts to use FU when none available
system.cpu.iq.fu_full::FloatDiv                     0                       # attempts to use FU when none available
system.cpu.iq.fu_full::FloatMisc                    0                       # attempts to use FU when none available
system.cpu.iq.fu_full::FloatSqrt                    0                       # attempts to use FU when none available
system.cpu.iq.fu_full::SimdAdd                      0                       # attempts to use FU when none available
system.cpu.iq.fu_full::SimdAddAcc                   0                       # attempts to use FU when none available
system.cpu.iq.fu_full::SimdAlu                      0                       # attempts to use FU when none available
system.cpu.iq.fu_full::SimdCmp                      0                       # attempts to use FU when none available
system.cpu.iq.fu_full::SimdCvt                      0                       # attempts to use FU when none available
system.cpu.iq.fu_full::SimdMisc                     0                       # attempts to use FU when none available
system.cpu.iq.fu_full::SimdMult                     0                       # attempts to use FU when none available
system.cpu.iq.fu_full::SimdMultAcc                  0                       # attempts to use FU when none available
system.cpu.iq.fu_full::SimdShift                    0                       # attempts to use FU when none available
system.cpu.iq.fu_full::SimdShiftAcc                 0                       # attempts to use FU when none available
system.cpu.iq.fu_full::SimdDiv                      0                       # attempts to use FU when none available
system.cpu.iq.fu_full::SimdSqrt                     0                       # attempts to use FU when none available
system.cpu.iq.fu_full::SimdFloatAdd                 0                       # attempts to use FU when none available
system.cpu.iq.fu_full::SimdFloatAlu                 0                       # attempts to use FU when none available
system.cpu.iq.fu_full::SimdFloatCmp                 0                       # attempts to use FU when none available
system.cpu.iq.fu_full::SimdFloatCvt                 0                       # attempts to use FU when none available
system.cpu.iq.fu_full::SimdFloatDiv                 0                       # attempts to use FU when none available
system.cpu.iq.fu_full::SimdFloatMisc                0                       # attempts to use FU when none available
system.cpu.iq.fu_full::SimdFloatMult                0                       # attempts to use FU when none available
system.cpu.iq.fu_full::SimdFloatMultAcc             0                       # attempts to use FU when none available
system.cpu.iq.fu_full::SimdFloatSqrt                0                       # attempts to use FU when none available
system.cpu.iq.fu_full::SimdReduceAdd                0                       # attempts to use FU when none available
system.cpu.iq.fu_full::SimdReduceAlu                0                       # attempts to use FU when none available
system.cpu.iq.fu_full::SimdReduceCmp                0                       # attempts to use FU when none available
system.cpu.iq.fu_full::SimdFloatReduceAdd            0                       # attempts to use FU when none available
system.cpu.iq.fu_full::SimdFloatReduceCmp            0                       # attempts to use FU when none available
system.cpu.iq.fu_full::SimdAes                      0                       # attempts to use FU when none available
system.cpu.iq.fu_full::SimdAesMix                   0                       # attempts to use FU when none available
system.cpu.iq.fu_full::SimdSha1Hash                 0                       # attempts to use FU when none available
system.cpu.iq.fu_full::SimdSha1Hash2                0                       # attempts to use FU when none available
system.cpu.iq.fu_full::SimdSha256Hash               0                       # attempts to use FU when none available
system.cpu.iq.fu_full::SimdSha256Hash2              0                       # attempts to use FU when none available
system.cpu.iq.fu_full::SimdShaSigma2                0                       # attempts to use FU when none available
system.cpu.iq.fu_full::SimdShaSigma3                0                       # attempts to use FU when none available
system.cpu.iq.fu_full::SimdPredAlu                  0                       # attempts to use FU when none available
system.cpu.iq.fu_full::MemRead                      0                       # attempts to use FU when none available
system.cpu.iq.fu_full::MemWrite                     0                       # attempts to use FU when none available
system.cpu.iq.fu_full::FloatMemRead                 0                       # attempts to use FU when none available
system.cpu.iq.fu_full::FloatMemWrite                0                       # attempts to use FU when none available
system.cpu.iq.fu_full::IprAccess                    0                       # attempts to use FU when none available
system.cpu.iq.fu_full::InstPrefetch                 0                       # attempts to use FU when none available
system.cpu.iq.int_alu_accesses               15561520                       # Number of integer alu accesses
system.cpu.iq.int_inst_queue_reads           37602021                       # Number of integer instruction queue reads
system.cpu.iq.int_inst_queue_wakeup_accesses     15519014                       # Number of integer instruction queue wakeup accesses
system.cpu.iq.int_inst_queue_writes          17072706                       # Number of integer instruction queue writes
system.cpu.iq.iqInstsAdded                   16262922                       # Number of instructions added to the IQ (excludes non-spec)
system.cpu.iq.iqInstsIssued                  15882026                       # Number of instructions issued
system.cpu.iq.iqNonSpecInstsAdded                2160                       # Number of non-speculative instructions added to the IQ
system.cpu.iq.iqSquashedInstsExamined         1131797                       # Number of squashed instructions iterated over during squash; mainly for profiling
system.cpu.iq.iqSquashedInstsIssued             24587                       # Number of squashed instructions issued
system.cpu.iq.iqSquashedNonSpecRemoved           1379                       # Number of squashed non-spec instructions that were removed
system.cpu.iq.iqSquashedOperandsExamined      1628742                       # Number of squashed operands that are examined and possibly removed from graph
system.cpu.iq.issued_per_cycle::samples       6352568                       # Number of insts issued each cycle
system.cpu.iq.issued_per_cycle::mean         2.500095                       # Number of insts issued each cycle
system.cpu.iq.issued_per_cycle::stdev        1.588147                       # Number of insts issued each cycle
system.cpu.iq.issued_per_cycle::underflows            0      0.00%      0.00% # Number of insts issued each cycle
system.cpu.iq.issued_per_cycle::0             1436674     22.62%     22.62% # Number of insts issued each cycle
system.cpu.iq.issued_per_cycle::1              388254      6.11%     28.73% # Number of insts issued each cycle
system.cpu.iq.issued_per_cycle::2              608057      9.57%     38.30% # Number of insts issued each cycle
system.cpu.iq.issued_per_cycle::3             1400674     22.05%     60.35% # Number of insts issued each cycle
system.cpu.iq.issued_per_cycle::4             2518909     39.65%    100.00% # Number of insts issued each cycle
system.cpu.iq.issued_per_cycle::overflows            0      0.00%    100.00% # Number of insts issued each cycle
system.cpu.iq.issued_per_cycle::min_value            0                       # Number of insts issued each cycle
system.cpu.iq.issued_per_cycle::max_value            4                       # Number of insts issued each cycle
system.cpu.iq.issued_per_cycle::total         6352568                       # Number of insts issued each cycle
system.cpu.iq.rate                           2.436102                       # Inst issue rate
system.cpu.iq.vec_alu_accesses                      0                       # Number of vector alu accesses
system.cpu.iq.vec_inst_queue_reads                  0                       # Number of vector instruction queue reads
system.cpu.iq.vec_inst_queue_wakeup_accesses            0                       # Number of vector instruction queue wakeup accesses
system.cpu.iq.vec_inst_queue_writes                 0                       # Number of vector instruction queue writes
system.cpu.itb.rdAccesses                           0                       # TLB accesses on read requests
system.cpu.itb.rdMisses                             0                       # TLB misses on read requests
system.cpu.itb.wrAccesses                      595319                       # TLB accesses on write requests
system.cpu.itb.wrMisses                           382                       # TLB misses on write requests
system.cpu.memDep0.conflictingLoads             23209                       # Number of conflicting loads.
system.cpu.memDep0.conflictingStores             7526                       # Number of conflicting stores.
system.cpu.memDep0.insertedLoads              1797847                       # Number of loads inserted to the mem dependence unit.
system.cpu.memDep0.insertedStores              552580                       # Number of stores inserted to the mem dependence unit.
system.cpu.misc_regfile_reads                 6686617                       # number of misc regfile reads
system.cpu.misc_regfile_writes                    720                       # number of misc regfile writes
system.cpu.numCycles                          6519442                       # number of cpu cycles simulated
system.cpu.numWorkItemsCompleted                    0                       # number of work items this cpu completed
system.cpu.numWorkItemsStarted                      0                       # number of work items this cpu started
system.cpu.process.numSyscalls                     60                       # Number of system calls
system.cpu.rename.BlockCycles                  895367                       # Number of cycles rename is blocking
system.cpu.rename.CommittedMaps              19709704                       # Number of HB maps that are committed
system.cpu.rename.FullRegisterEvents              146                       # Number of times there has been no free registers
system.cpu.rename.IQFullEvents                  51067                       # Number of times rename has blocked due to IQ full
system.cpu.rename.IdleCycles                   759017                       # Number of cycles rename is idle
system.cpu.rename.LQFullEvents                  12789                       # Number of times rename has blocked due to LQ full
system.cpu.rename.ROBFullEvents                  4482                       # Number of times rename has blocked due to ROB full
system.cpu.rename.RenameLookups              41725578                       # Number of register rename lookups that rename has made
system.cpu.rename.RenamedInsts               16509657                       # Number of instructions processed by rename
system.cpu.rename.RenamedOperands            21438728                       # Number of destination operands rename has renamed
system.cpu.rename.RunCycles                   4443245                       # Number of cycles rename is running
system.cpu.rename.SQFullEvents                  89989                       # Number of times rename has blocked due to SQ full
system.cpu.rename.SquashCycles                  41729                       # Number of cycles rename is squashing
system.cpu.rename.UnblockCycles                192114                       # Number of cycles rename is unblocking
system.cpu.rename.UndoneMaps                  1729001                       # Number of HB maps that are undone due to squashing
system.cpu.rename.fp_rename_lookups            459936                       # Number of floating rename lookups
system.cpu.rename.int_rename_lookups         22112260                       # Number of integer rename lookups
system.cpu.rename.serializeStallCycles          21096                       # count of cycles rename stalled for serializing inst
system.cpu.rename.serializingInsts                922                       # count of serializing insts renamed
system.cpu.rename.skidInsts                    221080                       # count of insts added to the skid buffer
system.cpu.rename.tempSerializingInsts            975                       # count of temporary serializing insts renamed
system.cpu.rob.rob_reads                     19655021                       # The number of ROB reads
system.cpu.rob.rob_writes                    32842215                       # The number of ROB writes
system.cpu.timesIdled                            1747                       # Number of times that the entire CPU went into an idle state and unscheduled itself
system.l2bus.snoop_filter.hit_multi_requests           11                       # Number of requests hitting in the snoop filter with multiple (>1) holders of the requested data.
system.l2bus.snoop_filter.hit_multi_snoops            0                       # Number of snoops hitting in the snoop filter with multiple (>1) holders of the requested data.
system.l2bus.snoop_filter.hit_single_requests        19373                       # Number of requests hitting in the snoop filter with a single holder of the requested data.
system.l2bus.snoop_filter.hit_single_snoops          460                       # Number of snoops hitting in the snoop filter with a single holder of the requested data.
system.l2bus.snoop_filter.tot_requests          40024                       # Total number of requests made to the snoop filter.
system.l2bus.snoop_filter.tot_snoops              460                       # Total number of snoops made to the snoop filter.
system.l2cache.prefetcher.num_hwpf_issued          808                       # number of hwpf issued
system.l2cache.prefetcher.pfBufferHit               0                       # number of redundant prefetches already in prefetch queue
system.l2cache.prefetcher.pfIdentified            808                       # number of prefetch candidates identified
system.l2cache.prefetcher.pfInCache                 0                       # number of redundant prefetches already in cache/mshr dropped
system.l2cache.prefetcher.pfRemovedFull             0                       # number of prefetches dropped due to prefetch queue size
system.l2cache.prefetcher.pfSpanPage               96                       # number of prefetches that crossed the page
system.membus.snoop_filter.hit_multi_requests            0                       # Number of requests hitting in the snoop filter with multiple (>1) holders of the requested data.
system.membus.snoop_filter.hit_multi_snoops            0                       # Number of snoops hitting in the snoop filter with multiple (>1) holders of the requested data.
system.membus.snoop_filter.hit_single_requests         9744                       # Number of requests hitting in the snoop filter with a single holder of the requested data.
system.membus.snoop_filter.hit_single_snoops            0                       # Number of snoops hitting in the snoop filter with a single holder of the requested data.
system.membus.snoop_filter.tot_requests         23618                       # Total number of requests made to the snoop filter.
system.membus.snoop_filter.tot_snoops               0                       # Total number of snoops made to the snoop filter.
system.membus.pwrStateResidencyTicks::UNDEFINED   2607776400                       # Cumulative time (in ticks) in various power states
system.membus.trans_dist::ReadResp              12370                       # Transaction distribution
system.membus.trans_dist::WritebackDirty         1361                       # Transaction distribution
system.membus.trans_dist::CleanEvict             8383                       # Transaction distribution
system.membus.trans_dist::ReadExReq              1504                       # Transaction distribution
system.membus.trans_dist::ReadExResp             1504                       # Transaction distribution
system.membus.trans_dist::ReadSharedReq         12370                       # Transaction distribution
system.membus.pkt_count_system.l2cache.mem_side::system.mem_ctrl.port        37492                       # Packet count per connected master and slave (bytes)
system.membus.pkt_count_system.l2cache.mem_side::total        37492                       # Packet count per connected master and slave (bytes)
system.membus.pkt_count::total                  37492                       # Packet count per connected master and slave (bytes)
system.membus.pkt_size_system.l2cache.mem_side::system.mem_ctrl.port       975040                       # Cumulative packet size per connected master and slave (bytes)
system.membus.pkt_size_system.l2cache.mem_side::total       975040                       # Cumulative packet size per connected master and slave (bytes)
system.membus.pkt_size::total                  975040                       # Cumulative packet size per connected master and slave (bytes)
system.membus.snoops                                0                       # Total snoops (count)
system.membus.snoopTraffic                          0                       # Total snoop traffic (bytes)
system.membus.snoop_fanout::samples             13874                       # Request fanout histogram
system.membus.snoop_fanout::mean                    0                       # Request fanout histogram
system.membus.snoop_fanout::stdev                   0                       # Request fanout histogram
system.membus.snoop_fanout::underflows              0      0.00%      0.00% # Request fanout histogram
system.membus.snoop_fanout::0                   13874    100.00%    100.00% # Request fanout histogram
system.membus.snoop_fanout::1                       0      0.00%    100.00% # Request fanout histogram
system.membus.snoop_fanout::overflows               0      0.00%    100.00% # Request fanout histogram
system.membus.snoop_fanout::min_value               0                       # Request fanout histogram
system.membus.snoop_fanout::max_value               0                       # Request fanout histogram
system.membus.snoop_fanout::total               13874                       # Request fanout histogram
system.membus.reqLayer2.occupancy            11659698                       # Layer occupancy (ticks)
system.membus.reqLayer2.utilization               0.4                       # Layer utilization (%)
system.membus.respLayer0.occupancy           30074102                       # Layer occupancy (ticks)
system.membus.respLayer0.utilization              1.2                       # Layer utilization (%)
system.l2bus.pwrStateResidencyTicks::UNDEFINED   2607776400                       # Cumulative time (in ticks) in various power states
system.l2bus.trans_dist::ReadResp               18384                       # Transaction distribution
system.l2bus.trans_dist::WritebackDirty          4266                       # Transaction distribution
system.l2bus.trans_dist::CleanEvict             24945                       # Transaction distribution
system.l2bus.trans_dist::HardPFReq               1134                       # Transaction distribution
system.l2bus.trans_dist::ReadExReq               2268                       # Transaction distribution
system.l2bus.trans_dist::ReadExResp              2268                       # Transaction distribution
system.l2bus.trans_dist::ReadSharedReq          18384                       # Transaction distribution
system.l2bus.pkt_count_system.cpu.icache.mem_side::system.l2cache.cpu_side         9665                       # Packet count per connected master and slave (bytes)
system.l2bus.pkt_count_system.cpu.dcache.mem_side::system.l2cache.cpu_side        51008                       # Packet count per connected master and slave (bytes)
system.l2bus.pkt_count::total                   60673                       # Packet count per connected master and slave (bytes)
system.l2bus.pkt_size_system.cpu.icache.mem_side::system.l2cache.cpu_side       211520                       # Cumulative packet size per connected master and slave (bytes)
system.l2bus.pkt_size_system.cpu.dcache.mem_side::system.l2cache.cpu_side      1295936                       # Cumulative packet size per connected master and slave (bytes)
system.l2bus.pkt_size::total                  1507456                       # Cumulative packet size per connected master and slave (bytes)
system.l2bus.snoops                             10976                       # Total snoops (count)
system.l2bus.snoopTraffic                       87296                       # Total snoop traffic (bytes)
system.l2bus.snoop_fanout::samples              31625                       # Request fanout histogram
system.l2bus.snoop_fanout::mean              0.014925                       # Request fanout histogram
system.l2bus.snoop_fanout::stdev             0.121254                       # Request fanout histogram
system.l2bus.snoop_fanout::underflows               0      0.00%      0.00% # Request fanout histogram
system.l2bus.snoop_fanout::0                    31153     98.51%     98.51% # Request fanout histogram
system.l2bus.snoop_fanout::1                      472      1.49%    100.00% # Request fanout histogram
system.l2bus.snoop_fanout::2                        0      0.00%    100.00% # Request fanout histogram
system.l2bus.snoop_fanout::overflows                0      0.00%    100.00% # Request fanout histogram
system.l2bus.snoop_fanout::min_value                0                       # Request fanout histogram
system.l2bus.snoop_fanout::max_value                1                       # Request fanout histogram
system.l2bus.snoop_fanout::total                31625                       # Request fanout histogram
system.l2bus.respLayer1.occupancy            20813598                       # Layer occupancy (ticks)
system.l2bus.respLayer1.utilization               0.8                       # Layer utilization (%)
system.l2bus.reqLayer0.occupancy             19802175                       # Layer occupancy (ticks)
system.l2bus.reqLayer0.utilization                0.8                       # Layer utilization (%)
system.l2bus.respLayer0.occupancy             3970797                       # Layer occupancy (ticks)
system.l2bus.respLayer0.utilization               0.2                       # Layer utilization (%)
system.clk_domain.clock                           400                       # Clock period in ticks
system.clk_domain.voltage_domain.voltage            1                       # Voltage in Volts
system.cpu.pwrStateResidencyTicks::ON      2607776400                       # Cumulative time (in ticks) in various power states
system.cpu.icache.pwrStateResidencyTicks::UNDEFINED   2607776400                       # Cumulative time (in ticks) in various power states
system.cpu.icache.demand_hits::.cpu.inst       591155                       # number of demand (read+write) hits
system.cpu.icache.demand_hits::total           591155                       # number of demand (read+write) hits
system.cpu.icache.overall_hits::.cpu.inst       591155                       # number of overall hits
system.cpu.icache.overall_hits::total          591155                       # number of overall hits
system.cpu.icache.demand_misses::.cpu.inst         4037                       # number of demand (read+write) misses
system.cpu.icache.demand_misses::total           4037                       # number of demand (read+write) misses
system.cpu.icache.overall_misses::.cpu.inst         4037                       # number of overall misses
system.cpu.icache.overall_misses::total          4037                       # number of overall misses
system.cpu.icache.demand_miss_latency::.cpu.inst    186594000                       # number of demand (read+write) miss cycles
system.cpu.icache.demand_miss_latency::total    186594000                       # number of demand (read+write) miss cycles
system.cpu.icache.overall_miss_latency::.cpu.inst    186594000                       # number of overall miss cycles
system.cpu.icache.overall_miss_latency::total    186594000                       # number of overall miss cycles
system.cpu.icache.demand_accesses::.cpu.inst       595192                       # number of demand (read+write) accesses
system.cpu.icache.demand_accesses::total       595192                       # number of demand (read+write) accesses
system.cpu.icache.overall_accesses::.cpu.inst       595192                       # number of overall (read+write) accesses
system.cpu.icache.overall_accesses::total       595192                       # number of overall (read+write) accesses
system.cpu.icache.demand_miss_rate::.cpu.inst     0.006783                       # miss rate for demand accesses
system.cpu.icache.demand_miss_rate::total     0.006783                       # miss rate for demand accesses
system.cpu.icache.overall_miss_rate::.cpu.inst     0.006783                       # miss rate for overall accesses
system.cpu.icache.overall_miss_rate::total     0.006783                       # miss rate for overall accesses
system.cpu.icache.demand_avg_miss_latency::.cpu.inst 46220.956156                       # average overall miss latency
system.cpu.icache.demand_avg_miss_latency::total 46220.956156                       # average overall miss latency
system.cpu.icache.overall_avg_miss_latency::.cpu.inst 46220.956156                       # average overall miss latency
system.cpu.icache.overall_avg_miss_latency::total 46220.956156                       # average overall miss latency
system.cpu.icache.blocked_cycles::no_mshrs           84                       # number of cycles access was blocked
system.cpu.icache.blocked_cycles::no_targets            0                       # number of cycles access was blocked
system.cpu.icache.blocked::no_mshrs                 5                       # number of cycles access was blocked
system.cpu.icache.blocked::no_targets               0                       # number of cycles access was blocked
system.cpu.icache.avg_blocked_cycles::no_mshrs    16.800000                       # average number of cycles each access was blocked
system.cpu.icache.avg_blocked_cycles::no_targets          nan                       # average number of cycles each access was blocked
system.cpu.icache.demand_mshr_hits::.cpu.inst          729                       # number of demand (read+write) MSHR hits
system.cpu.icache.demand_mshr_hits::total          729                       # number of demand (read+write) MSHR hits
system.cpu.icache.overall_mshr_hits::.cpu.inst          729                       # number of overall MSHR hits
system.cpu.icache.overall_mshr_hits::total          729                       # number of overall MSHR hits
system.cpu.icache.demand_mshr_misses::.cpu.inst         3308                       # number of demand (read+write) MSHR misses
system.cpu.icache.demand_mshr_misses::total         3308                       # number of demand (read+write) MSHR misses
system.cpu.icache.overall_mshr_misses::.cpu.inst         3308                       # number of overall MSHR misses
system.cpu.icache.overall_mshr_misses::total         3308                       # number of overall MSHR misses
system.cpu.icache.demand_mshr_miss_latency::.cpu.inst    151045600                       # number of demand (read+write) MSHR miss cycles
system.cpu.icache.demand_mshr_miss_latency::total    151045600                       # number of demand (read+write) MSHR miss cycles
system.cpu.icache.overall_mshr_miss_latency::.cpu.inst    151045600                       # number of overall MSHR miss cycles
system.cpu.icache.overall_mshr_miss_latency::total    151045600                       # number of overall MSHR miss cycles
system.cpu.icache.demand_mshr_miss_rate::.cpu.inst     0.005558                       # mshr miss rate for demand accesses
system.cpu.icache.demand_mshr_miss_rate::total     0.005558                       # mshr miss rate for demand accesses
system.cpu.icache.overall_mshr_miss_rate::.cpu.inst     0.005558                       # mshr miss rate for overall accesses
system.cpu.icache.overall_mshr_miss_rate::total     0.005558                       # mshr miss rate for overall accesses
system.cpu.icache.demand_avg_mshr_miss_latency::.cpu.inst 45660.701330                       # average overall mshr miss latency
system.cpu.icache.demand_avg_mshr_miss_latency::total 45660.701330                       # average overall mshr miss latency
system.cpu.icache.overall_avg_mshr_miss_latency::.cpu.inst 45660.701330                       # average overall mshr miss latency
system.cpu.icache.overall_avg_mshr_miss_latency::total 45660.701330                       # average overall mshr miss latency
system.cpu.icache.replacements                   3052                       # number of replacements
system.cpu.icache.ReadReq_hits::.cpu.inst       591155                       # number of ReadReq hits
system.cpu.icache.ReadReq_hits::total          591155                       # number of ReadReq hits
system.cpu.icache.ReadReq_misses::.cpu.inst         4037                       # number of ReadReq misses
system.cpu.icache.ReadReq_misses::total          4037                       # number of ReadReq misses
system.cpu.icache.ReadReq_miss_latency::.cpu.inst    186594000                       # number of ReadReq miss cycles
system.cpu.icache.ReadReq_miss_latency::total    186594000                       # number of ReadReq miss cycles
system.cpu.icache.ReadReq_accesses::.cpu.inst       595192                       # number of ReadReq accesses(hits+misses)
system.cpu.icache.ReadReq_accesses::total       595192                       # number of ReadReq accesses(hits+misses)
system.cpu.icache.ReadReq_miss_rate::.cpu.inst     0.006783                       # miss rate for ReadReq accesses
system.cpu.icache.ReadReq_miss_rate::total     0.006783                       # miss rate for ReadReq accesses
system.cpu.icache.ReadReq_avg_miss_latency::.cpu.inst 46220.956156                       # average ReadReq miss latency
system.cpu.icache.ReadReq_avg_miss_latency::total 46220.956156                       # average ReadReq miss latency
system.cpu.icache.ReadReq_mshr_hits::.cpu.inst          729                       # number of ReadReq MSHR hits
system.cpu.icache.ReadReq_mshr_hits::total          729                       # number of ReadReq MSHR hits
system.cpu.icache.ReadReq_mshr_misses::.cpu.inst         3308                       # number of ReadReq MSHR misses
system.cpu.icache.ReadReq_mshr_misses::total         3308                       # number of ReadReq MSHR misses
system.cpu.icache.ReadReq_mshr_miss_latency::.cpu.inst    151045600                       # number of ReadReq MSHR miss cycles
system.cpu.icache.ReadReq_mshr_miss_latency::total    151045600                       # number of ReadReq MSHR miss cycles
system.cpu.icache.ReadReq_mshr_miss_rate::.cpu.inst     0.005558                       # mshr miss rate for ReadReq accesses
system.cpu.icache.ReadReq_mshr_miss_rate::total     0.005558                       # mshr miss rate for ReadReq accesses
system.cpu.icache.ReadReq_avg_mshr_miss_latency::.cpu.inst 45660.701330                       # average ReadReq mshr miss latency
system.cpu.icache.ReadReq_avg_mshr_miss_latency::total 45660.701330                       # average ReadReq mshr miss latency
system.cpu.icache.prefetcher.pwrStateResidencyTicks::UNDEFINED   2607776400                       # Cumulative time (in ticks) in various power states
system.cpu.icache.tags.pwrStateResidencyTicks::UNDEFINED   2607776400                       # Cumulative time (in ticks) in various power states
system.cpu.icache.tags.tagsinuse           254.945302                       # Cycle average of tags in use
system.cpu.icache.tags.total_refs              433907                       # Total number of references to valid blocks.
system.cpu.icache.tags.sampled_refs              3052                       # Sample count of references to valid blocks.
system.cpu.icache.tags.avg_refs            142.171363                       # Average number of references to valid blocks.
system.cpu.icache.tags.warmup_cycle             66400                       # Cycle when the warmup percentage was hit.
system.cpu.icache.tags.occ_blocks::.cpu.inst   254.945302                       # Average occupied blocks per requestor
system.cpu.icache.tags.occ_percent::.cpu.inst     0.995880                       # Average percentage of cache occupancy
system.cpu.icache.tags.occ_percent::total     0.995880                       # Average percentage of cache occupancy
system.cpu.icache.tags.occ_task_id_blocks::1024          256                       # Occupied blocks per task id
system.cpu.icache.tags.age_task_id_blocks_1024::0           96                       # Occupied blocks per task id
system.cpu.icache.tags.age_task_id_blocks_1024::1            2                       # Occupied blocks per task id
system.cpu.icache.tags.age_task_id_blocks_1024::2            9                       # Occupied blocks per task id
system.cpu.icache.tags.age_task_id_blocks_1024::3          149                       # Occupied blocks per task id
system.cpu.icache.tags.occ_task_id_percent::1024            1                       # Percentage of cache occupancy per task id
system.cpu.icache.tags.tag_accesses           1193692                       # Number of tag accesses
system.cpu.icache.tags.data_accesses          1193692                       # Number of data accesses
system.cpu.dtb.walker.pwrStateResidencyTicks::UNDEFINED   2607776400                       # Cumulative time (in ticks) in various power states
system.cpu.interrupts.clk_domain.clock           6400                       # Clock period in ticks
system.cpu.itb.walker.pwrStateResidencyTicks::UNDEFINED   2607776400                       # Cumulative time (in ticks) in various power states
system.cpu.dcache.pwrStateResidencyTicks::UNDEFINED   2607776400                       # Cumulative time (in ticks) in various power states
system.cpu.dcache.demand_hits::.cpu.data      2148661                       # number of demand (read+write) hits
system.cpu.dcache.demand_hits::total          2148661                       # number of demand (read+write) hits
system.cpu.dcache.overall_hits::.cpu.data      2148661                       # number of overall hits
system.cpu.dcache.overall_hits::total         2148661                       # number of overall hits
system.cpu.dcache.demand_misses::.cpu.data        35292                       # number of demand (read+write) misses
system.cpu.dcache.demand_misses::total          35292                       # number of demand (read+write) misses
system.cpu.dcache.overall_misses::.cpu.data        35292                       # number of overall misses
system.cpu.dcache.overall_misses::total         35292                       # number of overall misses
system.cpu.dcache.demand_miss_latency::.cpu.data   1713716000                       # number of demand (read+write) miss cycles
system.cpu.dcache.demand_miss_latency::total   1713716000                       # number of demand (read+write) miss cycles
system.cpu.dcache.overall_miss_latency::.cpu.data   1713716000                       # number of overall miss cycles
system.cpu.dcache.overall_miss_latency::total   1713716000                       # number of overall miss cycles
system.cpu.dcache.demand_accesses::.cpu.data      2183953                       # number of demand (read+write) accesses
system.cpu.dcache.demand_accesses::total      2183953                       # number of demand (read+write) accesses
system.cpu.dcache.overall_accesses::.cpu.data      2183953                       # number of overall (read+write) accesses
system.cpu.dcache.overall_accesses::total      2183953                       # number of overall (read+write) accesses
system.cpu.dcache.demand_miss_rate::.cpu.data     0.016160                       # miss rate for demand accesses
system.cpu.dcache.demand_miss_rate::total     0.016160                       # miss rate for demand accesses
system.cpu.dcache.overall_miss_rate::.cpu.data     0.016160                       # miss rate for overall accesses
system.cpu.dcache.overall_miss_rate::total     0.016160                       # miss rate for overall accesses
system.cpu.dcache.demand_avg_miss_latency::.cpu.data 48558.200159                       # average overall miss latency
system.cpu.dcache.demand_avg_miss_latency::total 48558.200159                       # average overall miss latency
system.cpu.dcache.overall_avg_miss_latency::.cpu.data 48558.200159                       # average overall miss latency
system.cpu.dcache.overall_avg_miss_latency::total 48558.200159                       # average overall miss latency
system.cpu.dcache.blocked_cycles::no_mshrs        28674                       # number of cycles access was blocked
system.cpu.dcache.blocked_cycles::no_targets          151                       # number of cycles access was blocked
system.cpu.dcache.blocked::no_mshrs               747                       # number of cycles access was blocked
system.cpu.dcache.blocked::no_targets               2                       # number of cycles access was blocked
system.cpu.dcache.avg_blocked_cycles::no_mshrs    38.385542                       # average number of cycles each access was blocked
system.cpu.dcache.avg_blocked_cycles::no_targets    75.500000                       # average number of cycles each access was blocked
system.cpu.dcache.unused_prefetches              1859                       # number of HardPF blocks evicted w/o reference
system.cpu.dcache.writebacks::.writebacks         2905                       # number of writebacks
system.cpu.dcache.writebacks::total              2905                       # number of writebacks
system.cpu.dcache.demand_mshr_hits::.cpu.data        22422                       # number of demand (read+write) MSHR hits
system.cpu.dcache.demand_mshr_hits::total        22422                       # number of demand (read+write) MSHR hits
system.cpu.dcache.overall_mshr_hits::.cpu.data        22422                       # number of overall MSHR hits
system.cpu.dcache.overall_mshr_hits::total        22422                       # number of overall MSHR hits
system.cpu.dcache.demand_mshr_misses::.cpu.data        12870                       # number of demand (read+write) MSHR misses
system.cpu.dcache.demand_mshr_misses::total        12870                       # number of demand (read+write) MSHR misses
system.cpu.dcache.overall_mshr_misses::.cpu.data        12870                       # number of overall MSHR misses
system.cpu.dcache.overall_mshr_misses::.cpu.dcache.prefetcher         4474                       # number of overall MSHR misses
system.cpu.dcache.overall_mshr_misses::total        17344                       # number of overall MSHR misses
system.cpu.dcache.demand_mshr_miss_latency::.cpu.data    590152000                       # number of demand (read+write) MSHR miss cycles
system.cpu.dcache.demand_mshr_miss_latency::total    590152000                       # number of demand (read+write) MSHR miss cycles
system.cpu.dcache.overall_mshr_miss_latency::.cpu.data    590152000                       # number of overall MSHR miss cycles
system.cpu.dcache.overall_mshr_miss_latency::.cpu.dcache.prefetcher    249632437                       # number of overall MSHR miss cycles
system.cpu.dcache.overall_mshr_miss_latency::total    839784437                       # number of overall MSHR miss cycles
system.cpu.dcache.demand_mshr_miss_rate::.cpu.data     0.005893                       # mshr miss rate for demand accesses
system.cpu.dcache.demand_mshr_miss_rate::total     0.005893                       # mshr miss rate for demand accesses
system.cpu.dcache.overall_mshr_miss_rate::.cpu.data     0.005893                       # mshr miss rate for overall accesses
system.cpu.dcache.overall_mshr_miss_rate::.cpu.dcache.prefetcher          inf                       # mshr miss rate for overall accesses
system.cpu.dcache.overall_mshr_miss_rate::total     0.007942                       # mshr miss rate for overall accesses
system.cpu.dcache.demand_avg_mshr_miss_latency::.cpu.data 45854.856255                       # average overall mshr miss latency
system.cpu.dcache.demand_avg_mshr_miss_latency::total 45854.856255                       # average overall mshr miss latency
system.cpu.dcache.overall_avg_mshr_miss_latency::.cpu.data 45854.856255                       # average overall mshr miss latency
system.cpu.dcache.overall_avg_mshr_miss_latency::.cpu.dcache.prefetcher 55796.253241                       # average overall mshr miss latency
system.cpu.dcache.overall_avg_mshr_miss_latency::total 48419.305639                       # average overall mshr miss latency
system.cpu.dcache.replacements                  16320                       # number of replacements
system.cpu.dcache.ReadReq_hits::.cpu.data      1658325                       # number of ReadReq hits
system.cpu.dcache.ReadReq_hits::total         1658325                       # number of ReadReq hits
system.cpu.dcache.ReadReq_misses::.cpu.data        32982                       # number of ReadReq misses
system.cpu.dcache.ReadReq_misses::total         32982                       # number of ReadReq misses
system.cpu.dcache.ReadReq_miss_latency::.cpu.data   1597433200                       # number of ReadReq miss cycles
system.cpu.dcache.ReadReq_miss_latency::total   1597433200                       # number of ReadReq miss cycles
system.cpu.dcache.ReadReq_accesses::.cpu.data      1691307                       # number of ReadReq accesses(hits+misses)
system.cpu.dcache.ReadReq_accesses::total      1691307                       # number of ReadReq accesses(hits+misses)
system.cpu.dcache.ReadReq_miss_rate::.cpu.data     0.019501                       # miss rate for ReadReq accesses
system.cpu.dcache.ReadReq_miss_rate::total     0.019501                       # miss rate for ReadReq accesses
system.cpu.dcache.ReadReq_avg_miss_latency::.cpu.data 48433.484931                       # average ReadReq miss latency
system.cpu.dcache.ReadReq_avg_miss_latency::total 48433.484931                       # average ReadReq miss latency
system.cpu.dcache.ReadReq_mshr_hits::.cpu.data        22379                       # number of ReadReq MSHR hits
system.cpu.dcache.ReadReq_mshr_hits::total        22379                       # number of ReadReq MSHR hits
system.cpu.dcache.ReadReq_mshr_misses::.cpu.data        10603                       # number of ReadReq MSHR misses
system.cpu.dcache.ReadReq_mshr_misses::total        10603                       # number of ReadReq MSHR misses
system.cpu.dcache.ReadReq_mshr_miss_latency::.cpu.data    477345200                       # number of ReadReq MSHR miss cycles
system.cpu.dcache.ReadReq_mshr_miss_latency::total    477345200                       # number of ReadReq MSHR miss cycles
system.cpu.dcache.ReadReq_mshr_miss_rate::.cpu.data     0.006269                       # mshr miss rate for ReadReq accesses
system.cpu.dcache.ReadReq_mshr_miss_rate::total     0.006269                       # mshr miss rate for ReadReq accesses
system.cpu.dcache.ReadReq_avg_mshr_miss_latency::.cpu.data 45019.824578                       # average ReadReq mshr miss latency
system.cpu.dcache.ReadReq_avg_mshr_miss_latency::total 45019.824578                       # average ReadReq mshr miss latency
system.cpu.dcache.WriteReq_hits::.cpu.data       490336                       # number of WriteReq hits
system.cpu.dcache.WriteReq_hits::total         490336                       # number of WriteReq hits
system.cpu.dcache.WriteReq_misses::.cpu.data         2310                       # number of WriteReq misses
system.cpu.dcache.WriteReq_misses::total         2310                       # number of WriteReq misses
system.cpu.dcache.WriteReq_miss_latency::.cpu.data    116282800                       # number of WriteReq miss cycles
system.cpu.dcache.WriteReq_miss_latency::total    116282800                       # number of WriteReq miss cycles
system.cpu.dcache.WriteReq_accesses::.cpu.data       492646                       # number of WriteReq accesses(hits+misses)
system.cpu.dcache.WriteReq_accesses::total       492646                       # number of WriteReq accesses(hits+misses)
system.cpu.dcache.WriteReq_miss_rate::.cpu.data     0.004689                       # miss rate for WriteReq accesses
system.cpu.dcache.WriteReq_miss_rate::total     0.004689                       # miss rate for WriteReq accesses
system.cpu.dcache.WriteReq_avg_miss_latency::.cpu.data 50338.874459                       # average WriteReq miss latency
system.cpu.dcache.WriteReq_avg_miss_latency::total 50338.874459                       # average WriteReq miss latency
system.cpu.dcache.WriteReq_mshr_hits::.cpu.data           43                       # number of WriteReq MSHR hits
system.cpu.dcache.WriteReq_mshr_hits::total           43                       # number of WriteReq MSHR hits
system.cpu.dcache.WriteReq_mshr_misses::.cpu.data         2267                       # number of WriteReq MSHR misses
system.cpu.dcache.WriteReq_mshr_misses::total         2267                       # number of WriteReq MSHR misses
system.cpu.dcache.WriteReq_mshr_miss_latency::.cpu.data    112806800                       # number of WriteReq MSHR miss cycles
[...]
system.l2cache.demand_mshr_misses::.cpu.inst          225                       # number of demand (read+write) MSHR misses
system.l2cache.demand_mshr_misses::.cpu.data          126                       # number of demand (read+write) MSHR misses
system.l2cache.demand_mshr_misses::.cpu.dcache.prefetcher           37                       # number of demand (read+write) MSHR misses
system.l2cache.demand_mshr_misses::total          388                       # number of demand (read+write) MSHR misses
system.l2cache.overall_mshr_misses::.cpu.inst          225                       # number of overall MSHR misses
system.l2cache.overall_mshr_misses::.cpu.data          126                       # number of overall MSHR misses
system.l2cache.overall_mshr_misses::.cpu.dcache.prefetcher           37                       # number of overall MSHR misses
system.l2cache.overall_mshr_misses::total          388                       # number of overall MSHR misses
system.l2cache.demand_mshr_miss_latency::.cpu.inst     13274800                       # number of demand (read+write) MSHR miss cycles
system.l2cache.demand_mshr_miss_latency::.cpu.data      7317600                       # number of demand (read+write) MSHR miss cycles
system.l2cache.demand_mshr_miss_latency::.cpu.dcache.prefetcher      2190363                       # number of demand (read+write) MSHR miss cycles
system.l2cache.demand_mshr_miss_latency::total     22782763                       # number of demand (read+write) MSHR miss cycles
system.l2cache.overall_mshr_miss_latency::.cpu.inst     13274800                       # number of overall MSHR miss cycles
system.l2cache.overall_mshr_miss_latency::.cpu.data      7317600                       # number of overall MSHR miss cycles
system.l2cache.overall_mshr_miss_latency::.cpu.dcache.prefetcher      2190363                       # number of overall MSHR miss cycles
system.l2cache.overall_mshr_miss_latency::total     22782763                       # number of overall MSHR miss cycles
system.l2cache.demand_mshr_miss_rate::.cpu.inst     0.468750                       # mshr miss rate for demand accesses
system.l2cache.demand_mshr_miss_rate::.cpu.data     0.464945                       # mshr miss rate for demand accesses
system.l2cache.demand_mshr_miss_rate::.cpu.dcache.prefetcher     0.840909                       # mshr miss rate for demand accesses
system.l2cache.demand_mshr_miss_rate::total     0.488050                       # mshr miss rate for demand accesses
system.l2cache.overall_mshr_miss_rate::.cpu.inst     0.468750                       # mshr miss rate for overall accesses
system.l2cache.overall_mshr_miss_rate::.cpu.data     0.464945                       # mshr miss rate for overall accesses
system.l2cache.overall_mshr_miss_rate::.cpu.dcache.prefetcher     0.840909                       # mshr miss rate for overall accesses
system.l2cache.overall_mshr_miss_rate::total     0.488050                       # mshr miss rate for overall accesses
system.l2cache.demand_avg_mshr_miss_latency::.cpu.inst 58999.111111                       # average overall mshr miss latency
system.l2cache.demand_avg_mshr_miss_latency::.cpu.data 58076.190476                       # average overall mshr miss latency
system.l2cache.demand_avg_mshr_miss_latency::.cpu.dcache.prefetcher        59199                       # average overall mshr miss latency
system.l2cache.demand_avg_mshr_miss_latency::total 58718.461340                       # average overall mshr miss latency
system.l2cache.overall_avg_mshr_miss_latency::.cpu.inst 58999.111111                       # average overall mshr miss latency
system.l2cache.overall_avg_mshr_miss_latency::.cpu.data 58076.190476                       # average overall mshr miss latency
system.l2cache.overall_avg_mshr_miss_latency::.cpu.dcache.prefetcher        59199                       # average overall mshr miss latency
system.l2cache.overall_avg_mshr_miss_latency::total 58718.461340                       # average overall mshr miss latency
system.l2cache.replacements                       396                       # number of replacements
system.l2cache.WritebackDirty_hits::.writebacks          148                       # number of WritebackDirty hits
system.l2cache.WritebackDirty_hits::total          148                       # number of WritebackDirty hits
system.l2cache.WritebackDirty_accesses::.writebacks          148                       # number of WritebackDirty accesses(hits+misses)
system.l2cache.WritebackDirty_accesses::total          148                       # number of WritebackDirty accesses(hits+misses)
system.l2cache.CleanEvict_mshr_misses::.writebacks            7                       # number of CleanEvict MSHR misses
system.l2cache.CleanEvict_mshr_misses::total            7                       # number of CleanEvict MSHR misses
system.l2cache.CleanEvict_mshr_miss_rate::.writebacks          inf                       # mshr miss rate for CleanEvict accesses
system.l2cache.CleanEvict_mshr_miss_rate::total          inf                       # mshr miss rate for CleanEvict accesses
system.l2cache.ReadExReq_hits::.cpu.data           15                       # number of ReadExReq hits
system.l2cache.ReadExReq_hits::total               15                       # number of ReadExReq hits
system.l2cache.ReadExReq_misses::.cpu.data            6                       # number of ReadExReq misses
system.l2cache.ReadExReq_misses::total              6                       # number of ReadExReq misses
system.l2cache.ReadExReq_miss_latency::.cpu.data       430400                       # number of ReadExReq miss cycles
system.l2cache.ReadExReq_miss_latency::total       430400                       # number of ReadExReq miss cycles
system.l2cache.ReadExReq_accesses::.cpu.data           21                       # number of ReadExReq accesses(hits+misses)
system.l2cache.ReadExReq_accesses::total           21                       # number of ReadExReq accesses(hits+misses)
system.l2cache.ReadExReq_miss_rate::.cpu.data     0.285714                       # miss rate for ReadExReq accesses
system.l2cache.ReadExReq_miss_rate::total     0.285714                       # miss rate for ReadExReq accesses
system.l2cache.ReadExReq_avg_miss_latency::.cpu.data 71733.333333                       # average ReadExReq miss latency
system.l2cache.ReadExReq_avg_miss_latency::total 71733.333333                       # average ReadExReq miss latency
system.l2cache.ReadExReq_mshr_misses::.cpu.data            6                       # number of ReadExReq MSHR misses
system.l2cache.ReadExReq_mshr_misses::total            6                       # number of ReadExReq MSHR misses
system.l2cache.ReadExReq_mshr_miss_latency::.cpu.data       382400                       # number of ReadExReq MSHR miss cycles
system.l2cache.ReadExReq_mshr_miss_latency::total       382400                       # number of ReadExReq MSHR miss cycles
system.l2cache.ReadExReq_mshr_miss_rate::.cpu.data     0.285714                       # mshr miss rate for ReadExReq accesses
system.l2cache.ReadExReq_mshr_miss_rate::total     0.285714                       # mshr miss rate for ReadExReq accesses
system.l2cache.ReadExReq_avg_mshr_miss_latency::.cpu.data 63733.333333                       # average ReadExReq mshr miss latency
system.l2cache.ReadExReq_avg_mshr_miss_latency::total 63733.333333                       # average ReadExReq mshr miss latency
system.l2cache.ReadSharedReq_hits::.cpu.inst          255                       # number of ReadSharedReq hits
system.l2cache.ReadSharedReq_hits::.cpu.data          130                       # number of ReadSharedReq hits
system.l2cache.ReadSharedReq_hits::.cpu.dcache.prefetcher            7                       # number of ReadSharedReq hits
system.l2cache.ReadSharedReq_hits::total          392                       # number of ReadSharedReq hits
system.l2cache.ReadSharedReq_misses::.cpu.inst          225                       # number of ReadSharedReq misses
system.l2cache.ReadSharedReq_misses::.cpu.data          120                       # number of ReadSharedReq misses
system.l2cache.ReadSharedReq_misses::.cpu.dcache.prefetcher           37                       # number of ReadSharedReq misses
system.l2cache.ReadSharedReq_misses::total          382                       # number of ReadSharedReq misses
system.l2cache.ReadSharedReq_miss_latency::.cpu.inst     15066800                       # number of ReadSharedReq miss cycles
system.l2cache.ReadSharedReq_miss_latency::.cpu.data      7895200                       # number of ReadSharedReq miss cycles
system.l2cache.ReadSharedReq_miss_latency::.cpu.dcache.prefetcher      2486363                       # number of ReadSharedReq miss cycles
system.l2cache.ReadSharedReq_miss_latency::total     25448363                       # number of ReadSharedReq miss cycles
system.l2cache.ReadSharedReq_accesses::.cpu.inst          480                       # number of ReadSharedReq accesses(hits+misses)
system.l2cache.ReadSharedReq_accesses::.cpu.data          250                       # number of ReadSharedReq accesses(hits+misses)
system.l2cache.ReadSharedReq_accesses::.cpu.dcache.prefetcher           44                       # number of ReadSharedReq accesses(hits+misses)
system.l2cache.ReadSharedReq_accesses::total          774                       # number of ReadSharedReq accesses(hits+misses)
system.l2cache.ReadSharedReq_miss_rate::.cpu.inst     0.468750                       # miss rate for ReadSharedReq accesses
system.l2cache.ReadSharedReq_miss_rate::.cpu.data     0.480000                       # miss rate for ReadSharedReq accesses
system.l2cache.ReadSharedReq_miss_rate::.cpu.dcache.prefetcher     0.840909                       # miss rate for ReadSharedReq accesses
system.l2cache.ReadSharedReq_miss_rate::total     0.493540                       # miss rate for ReadSharedReq accesses
system.l2cache.ReadSharedReq_avg_miss_latency::.cpu.inst 66963.555556                       # average ReadSharedReq miss latency
system.l2cache.ReadSharedReq_avg_miss_latency::.cpu.data 65793.333333                       # average ReadSharedReq miss latency
system.l2cache.ReadSharedReq_avg_miss_latency::.cpu.dcache.prefetcher        67199                       # average ReadSharedReq miss latency
system.l2cache.ReadSharedReq_avg_miss_latency::total 66618.751309                       # average ReadSharedReq miss latency
system.l2cache.ReadSharedReq_mshr_misses::.cpu.inst          225                       # number of ReadSharedReq MSHR misses
system.l2cache.ReadSharedReq_mshr_misses::.cpu.data          120                       # number of ReadSharedReq MSHR misses
system.l2cache.ReadSharedReq_mshr_misses::.cpu.dcache.prefetcher           37                       # number of ReadSharedReq MSHR misses
system.l2cache.ReadSharedReq_mshr_misses::total          382                       # number of ReadSharedReq MSHR misses
system.l2cache.ReadSharedReq_mshr_miss_latency::.cpu.inst     13274800                       # number of ReadSharedReq MSHR miss cycles
system.l2cache.ReadSharedReq_mshr_miss_latency::.cpu.data      6935200                       # number of ReadSharedReq MSHR miss cycles
system.l2cache.ReadSharedReq_mshr_miss_latency::.cpu.dcache.prefetcher      2190363                       # number of ReadSharedReq MSHR miss cycles
system.l2cache.ReadSharedReq_mshr_miss_latency::total     22400363                       # number of ReadSharedReq MSHR miss cycles
system.l2cache.ReadSharedReq_mshr_miss_rate::.cpu.inst     0.468750                       # mshr miss rate for ReadSharedReq accesses
system.l2cache.ReadSharedReq_mshr_miss_rate::.cpu.data     0.480000                       # mshr miss rate for ReadSharedReq accesses
system.l2cache.ReadSharedReq_mshr_miss_rate::.cpu.dcache.prefetcher     0.840909                       # mshr miss rate for ReadSharedReq accesses
system.l2cache.ReadSharedReq_mshr_miss_rate::total     0.493540                       # mshr miss rate for ReadSharedReq accesses
system.l2cache.ReadSharedReq_avg_mshr_miss_latency::.cpu.inst 58999.111111                       # average ReadSharedReq mshr miss latency
system.l2cache.ReadSharedReq_avg_mshr_miss_latency::.cpu.data 57793.333333                       # average ReadSharedReq mshr miss latency
system.l2cache.ReadSharedReq_avg_mshr_miss_latency::.cpu.dcache.prefetcher        59199                       # average ReadSharedReq mshr miss latency
system.l2cache.ReadSharedReq_avg_mshr_miss_latency::total 58639.693717                       # average ReadSharedReq mshr miss latency
system.l2cache.prefetcher.pwrStateResidencyTicks::UNDEFINED     61002000                       # Cumulative time (in ticks) in various power states
system.l2cache.tags.pwrStateResidencyTicks::UNDEFINED     61002000                       # Cumulative time (in ticks) in various power states
system.l2cache.tags.tagsinuse                    4096                       # Cycle average of tags in use
system.l2cache.tags.total_refs                  14642                       # Total number of references to valid blocks.
system.l2cache.tags.sampled_refs                 4492                       # Sample count of references to valid blocks.
system.l2cache.tags.avg_refs                 3.259573                       # Average number of references to valid blocks.
system.l2cache.tags.warmup_cycle                    0                       # Cycle when the warmup percentage was hit.
system.l2cache.tags.occ_blocks::.writebacks    39.006819                       # Average occupied blocks per requestor
system.l2cache.tags.occ_blocks::.cpu.inst  1133.168993                       # Average occupied blocks per requestor
system.l2cache.tags.occ_blocks::.cpu.data  1901.359515                       # Average occupied blocks per requestor
system.l2cache.tags.occ_blocks::.cpu.dcache.prefetcher   822.885996                       # Average occupied blocks per requestor
system.l2cache.tags.occ_blocks::.l2cache.prefetcher   199.578676                       # Average occupied blocks per requestor
system.l2cache.tags.occ_percent::.writebacks     0.009523                       # Average percentage of cache occupancy
system.l2cache.tags.occ_percent::.cpu.inst     0.276653                       # Average percentage of cache occupancy
system.l2cache.tags.occ_percent::.cpu.data     0.464199                       # Average percentage of cache occupancy
system.l2cache.tags.occ_percent::.cpu.dcache.prefetcher     0.200900                       # Average percentage of cache occupancy
system.l2cache.tags.occ_percent::.l2cache.prefetcher     0.048725                       # Average percentage of cache occupancy
system.l2cache.tags.occ_percent::total              1                       # Average percentage of cache occupancy
system.l2cache.tags.occ_task_id_blocks::1022          970                       # Occupied blocks per task id
system.l2cache.tags.occ_task_id_blocks::1024         3126                       # Occupied blocks per task id
system.l2cache.tags.age_task_id_blocks_1022::0           10                       # Occupied blocks per task id
system.l2cache.tags.age_task_id_blocks_1022::1           28                       # Occupied blocks per task id
system.l2cache.tags.age_task_id_blocks_1022::3          932                       # Occupied blocks per task id
system.l2cache.tags.age_task_id_blocks_1024::0          170                       # Occupied blocks per task id
system.l2cache.tags.age_task_id_blocks_1024::1          188                       # Occupied blocks per task id
system.l2cache.tags.age_task_id_blocks_1024::2           58                       # Occupied blocks per task id
system.l2cache.tags.age_task_id_blocks_1024::3         2710                       # Occupied blocks per task id
system.l2cache.tags.occ_task_id_percent::1022     0.236816                       # Percentage of cache occupancy per task id
system.l2cache.tags.occ_task_id_percent::1024     0.763184                       # Percentage of cache occupancy per task id
system.l2cache.tags.tag_accesses                13108                       # Number of tag accesses
system.l2cache.tags.data_accesses               13108                       # Number of data accesses
system.mem_ctrl.pwrStateResidencyTicks::UNDEFINED     61002000                       # Cumulative time (in ticks) in various power states
system.mem_ctrl.bytes_read::.cpu.inst           14336                       # Number of bytes read from this memory
system.mem_ctrl.bytes_read::.cpu.data            8064                       # Number of bytes read from this memory
system.mem_ctrl.bytes_read::.cpu.dcache.prefetcher         2368                       # Number of bytes read from this memory
system.mem_ctrl.bytes_read::total               24768                       # Number of bytes read from this memory
system.mem_ctrl.bytes_inst_read::.cpu.inst        14336                       # Number of instructions bytes read from this memory
system.mem_ctrl.bytes_inst_read::total          14336                       # Number of instructions bytes read from this memory
system.mem_ctrl.bytes_written::.writebacks         1344                       # Number of bytes written to this memory
system.mem_ctrl.bytes_written::total             1344                       # Number of bytes written to this memory
system.mem_ctrl.num_reads::.cpu.inst              224                       # Number of read requests responded to by this memory
system.mem_ctrl.num_reads::.cpu.data              126                       # Number of read requests responded to by this memory
system.mem_ctrl.num_reads::.cpu.dcache.prefetcher           37                       # Number of read requests responded to by this memory
system.mem_ctrl.num_reads::total                  387                       # Number of read requests responded to by this memory
system.mem_ctrl.num_writes::.writebacks            21                       # Number of write requests responded to by this memory
system.mem_ctrl.num_writes::total                  21                       # Number of write requests responded to by this memory
system.mem_ctrl.bw_read::.cpu.inst          235008688                       # Total read bandwidth from this memory (bytes/s)
system.mem_ctrl.bw_read::.cpu.data          132192387                       # Total read bandwidth from this memory (bytes/s)
system.mem_ctrl.bw_read::.cpu.dcache.prefetcher     38818399                       # Total read bandwidth from this memory (bytes/s)
system.mem_ctrl.bw_read::total              406019475                       # Total read bandwidth from this memory (bytes/s)
system.mem_ctrl.bw_inst_read::.cpu.inst     235008688                       # Instruction read bandwidth from this memory (bytes/s)
system.mem_ctrl.bw_inst_read::total         235008688                       # Instruction read bandwidth from this memory (bytes/s)
system.mem_ctrl.bw_write::.writebacks        22032065                       # Write bandwidth from this memory (bytes/s)
system.mem_ctrl.bw_write::total              22032065                       # Write bandwidth from this memory (bytes/s)
system.mem_ctrl.bw_total::.writebacks        22032065                       # Total bandwidth to/from this memory (bytes/s)
system.mem_ctrl.bw_total::.cpu.inst         235008688                       # Total bandwidth to/from this memory (bytes/s)
system.mem_ctrl.bw_total::.cpu.data         132192387                       # Total bandwidth to/from this memory (bytes/s)
system.mem_ctrl.bw_total::.cpu.dcache.prefetcher     38818399                       # Total bandwidth to/from this memory (bytes/s)
system.mem_ctrl.bw_total::total             428051539                       # Total bandwidth to/from this memory (bytes/s)

---------- End Simulation Statistics   ----------
