
---------- Begin Simulation Statistics ----------
final_tick                                 1222462000                       # Number of ticks from beginning of simulation (restored from checkpoints and never reset)
host_inst_rate                                 190450                       # Simulator instruction rate (inst/s)
host_mem_usage                                4406856                       # Number of bytes of host memory used
host_op_rate                                   342714                       # Simulator op (including micro ops) rate (op/s)
host_seconds                                    13.11                       # Real time elapsed on the host
host_tick_rate                               93274899                       # Simulator tick rate (ticks/s)
sim_freq                                 1000000000000                       # Frequency of simulated ticks
sim_insts                                     2496026                       # Number of instructions simulated
sim_ops                                       4491612                       # Number of ops (including micro ops) simulated
sim_seconds                                  0.001222                       # Number of seconds simulated
sim_ticks                                  1222462000                       # Number of ticks simulated
system.cpu.branchPred.BTBCorrect                    0                       # Number of correct BTB predictions (this stat may not work properly.
system.cpu.branchPred.BTBHitPct              0.000000                       # BTB Hit Percentage
system.cpu.branchPred.BTBHits                       0                       # Number of BTB hits
system.cpu.branchPred.BTBLookups               509904                       # Number of BTB lookups
system.cpu.branchPred.RASInCorrect                 10                       # Number of incorrect RAS predictions.
system.cpu.branchPred.condIncorrect             24579                       # Number of conditional branches incorrect
system.cpu.branchPred.condPredicted            530024                       # Number of conditional branches predicted
system.cpu.branchPred.indirectHits             272098                       # Number of indirect target hits.
system.cpu.branchPred.indirectLookups          509904                       # Number of indirect predictor lookups.
system.cpu.branchPred.indirectMisses           237806                       # Number of indirect misses.
system.cpu.branchPred.lookups                  570288                       # Number of BP lookups
system.cpu.branchPred.usedRAS                   18386                       # Number of times the RAS was used to get a target.
system.cpu.branchPredindirectMispredicted        12319                       # Number of mispredicted indirect branches.
system.cpu.cc_regfile_reads                   2854852                       # number of cc regfile reads
system.cpu.cc_regfile_writes                  2186200                       # number of cc regfile writes
system.cpu.commit.amos                              0                       # Number of atomic instructions committed
system.cpu.commit.branchMispredicts             24694                       # The number of times a branch was mispredicted
system.cpu.commit.branches                     425992                       # Number of branches committed
system.cpu.commit.bw_lim_events                751150                       # number cycles where commit BW limit reached
system.cpu.commit.commitNonSpecStalls             760                       # The number of times commit has been forced to stall to communicate backwards
system.cpu.commit.commitSquashedInsts          890891                       # The number of squashed insts skipped by commit
system.cpu.commit.committedInsts              2496026                       # Number of instructions committed
system.cpu.commit.committedOps                4491612                       # Number of ops (including micro ops) committed
system.cpu.commit.committed_per_cycle::samples      2651258                       # Number of insts commited each cycle
system.cpu.commit.committed_per_cycle::mean     1.694144                       # Number of insts commited each cycle
system.cpu.commit.committed_per_cycle::stdev     1.736209                       # Number of insts commited each cycle
system.cpu.commit.committed_per_cycle::underflows            0      0.00%      0.00% # Number of insts commited each cycle
system.cpu.commit.committed_per_cycle::0      1184627     44.68%     44.68% # Number of insts commited each cycle
system.cpu.commit.committed_per_cycle::1       220433      8.31%     53.00% # Number of insts commited each cycle
system.cpu.commit.committed_per_cycle::2       218565      8.24%     61.24% # Number of insts commited each cycle
system.cpu.commit.committed_per_cycle::3       276483     10.43%     71.67% # Number of insts commited each cycle
system.cpu.commit.committed_per_cycle::4       751150     28.33%    100.00% # Number of insts commited each cycle
system.cpu.commit.committed_per_cycle::overflows            0      0.00%    100.00% # Number of insts commited each cycle
system.cpu.commit.committed_per_cycle::min_value            0                       # Number of insts commited each cycle
system.cpu.commit.committed_per_cycle::max_value            4                       # Number of insts commited each cycle
system.cpu.commit.committed_per_cycle::total      2651258                       # Number of insts commited each cycle
system.cpu.commit.fp_insts                     125881                       # Number of committed floating point instructions.
system.cpu.commit.function_calls                16455                       # Number of function calls committed.
system.cpu.commit.int_insts                   4395165                       # Number of committed integer instructions.
system.cpu.commit.loads                        606061                       # Number of loads committed
system.cpu.commit.membars                           1                       # Number of memory barriers committed
system.cpu.commit.op_class_0::No_OpClass        24663      0.55%      0.55% # Class of committed instruction
system.cpu.commit.op_class_0::IntAlu          3482267     77.53%     78.08% # Class of committed instruction
system.cpu.commit.op_class_0::IntMult            3552      0.08%     78.16% # Class of committed instruction
system.cpu.commit.op_class_0::IntDiv            38156      0.85%     79.01% # Class of committed instruction
system.cpu.commit.op_class_0::FloatAdd           4948      0.11%     79.12% # Class of committed instruction
system.cpu.commit.op_class_0::FloatCmp              0      0.00%     79.12% # Class of committed instruction
system.cpu.commit.op_class_0::FloatCvt           1248      0.03%     79.14% # Class of committed instruction
system.cpu.commit.op_class_0::FloatMult             0      0.00%     79.14% # Class of committed instruction
system.cpu.commit.op_class_0::FloatMultAcc            0      0.00%     79.14% # Class of committed instruction
system.cpu.commit.op_class_0::FloatDiv              0      0.00%     79.14% # Class of committed instruction
system.cpu.commit.op_class_0::FloatMisc             0      0.00%     79.14% # Class of committed instruction
system.cpu.commit.op_class_0::FloatSqrt             0      0.00%     79.14% # Class of committed instruction
system.cpu.commit.op_class_0::SimdAdd            6274      0.14%     79.28% # Class of committed instruction
system.cpu.commit.op_class_0::SimdAddAcc            0      0.00%     79.28% # Class of committed instruction
system.cpu.commit.op_class_0::SimdAlu           19537      0.43%     79.72% # Class of committed instruction
system.cpu.commit.op_class_0::SimdCmp               0      0.00%     79.72% # Class of committed instruction
system.cpu.commit.op_class_0::SimdCvt           20454      0.46%     80.17% # Class of committed instruction
system.cpu.commit.op_class_0::SimdMisc          25095      0.56%     80.73% # Class of committed instruction
system.cpu.commit.op_class_0::SimdMult              0      0.00%     80.73% # Class of committed instruction
system.cpu.commit.op_class_0::SimdMultAcc            0      0.00%     80.73% # Class of committed instruction
system.cpu.commit.op_class_0::SimdShift          1242      0.03%     80.76% # Class of committed instruction
system.cpu.commit.op_class_0::SimdShiftAcc            0      0.00%     80.76% # Class of committed instruction
system.cpu.commit.op_class_0::SimdDiv               0      0.00%     80.76% # Class of committed instruction
system.cpu.commit.op_class_0::SimdSqrt              0      0.00%     80.76% # Class of committed instruction
system.cpu.commit.op_class_0::SimdFloatAdd            0      0.00%     80.76% # Class of committed instruction
system.cpu.commit.op_class_0::SimdFloatAlu            0      0.00%     80.76% # Class of committed instruction
system.cpu.commit.op_class_0::SimdFloatCmp            0      0.00%     80.76% # Class of committed instruction
system.cpu.commit.op_class_0::SimdFloatCvt            0      0.00%     80.76% # Class of committed instruction
system.cpu.commit.op_class_0::SimdFloatDiv            0      0.00%     80.76% # Class of committed instruction
system.cpu.commit.op_class_0::SimdFloatMisc            0      0.00%     80.76% # Class of committed instruction
system.cpu.commit.op_class_0::SimdFloatMult            0      0.00%     80.76% # Class of committed instruction
system.cpu.commit.op_class_0::SimdFloatMultAcc            0      0.00%     80.76% # Class of committed instruction
system.cpu.commit.op_class_0::SimdFloatSqrt            0      0.00%     80.76% # Class of committed instruction
system.cpu.commit.op_class_0::SimdReduceAdd            0      0.00%     80.76% # Class of committed instruction
system.cpu.commit.op_class_0::SimdReduceAlu            0      0.00%     80.76% # Class of committed instruction
system.cpu.commit.op_class_0::SimdReduceCmp            0      0.00%     80.76% # Class of committed instruction
system.cpu.commit.op_class_0::SimdFloatReduceAdd            0      0.00%     80.76% # Class of committed instruction
system.cpu.commit.op_class_0::SimdFloatReduceCmp            0      0.00%     80.76% # Class of committed instruction
system.cpu.commit.op_class_0::SimdAes               0      0.00%     80.76% # Class of committed instruction
system.cpu.commit.op_class_0::SimdAesMix            0      0.00%     80.76% # Class of committed instruction
system.cpu.commit.op_class_0::SimdSha1Hash            0      0.00%     80.76% # Class of committed instruction
system.cpu.commit.op_class_0::SimdSha1Hash2            0      0.00%     80.76% # Class of committed instruction
system.cpu.commit.op_class_0::SimdSha256Hash            0      0.00%     80.76% # Class of committed instruction
system.cpu.commit.op_class_0::SimdSha256Hash2            0      0.00%     80.76% # Class of committed instruction
system.cpu.commit.op_class_0::SimdShaSigma2            0      0.00%     80.76% # Class of committed instruction
system.cpu.commit.op_class_0::SimdShaSigma3            0      0.00%     80.76% # Class of committed instruction
system.cpu.commit.op_class_0::SimdPredAlu            0      0.00%     80.76% # Class of committed instruction
system.cpu.commit.op_class_0::MemRead          580523     12.92%     93.68% # Class of committed instruction
system.cpu.commit.op_class_0::MemWrite         243608      5.42%     99.11% # Class of committed instruction
system.cpu.commit.op_class_0::FloatMemRead        25538      0.57%     99.68% # Class of committed instruction
system.cpu.commit.op_class_0::FloatMemWrite        14507      0.32%    100.00% # Class of committed instruction
system.cpu.commit.op_class_0::IprAccess             0      0.00%    100.00% # Class of committed instruction
system.cpu.commit.op_class_0::InstPrefetch            0      0.00%    100.00% # Class of committed instruction
system.cpu.commit.op_class_0::total           4491612                       # Class of committed instruction
system.cpu.commit.refs                         864176                       # Number of memory references committed
system.cpu.commit.swp_count                         0                       # Number of s/w prefetches committed
system.cpu.commit.vec_insts                         0                       # Number of committed Vector instructions.
system.cpu.committedInsts                     2496026                       # Number of Instructions Simulated
system.cpu.committedOps                       4491612                       # Number of Ops (including micro ops) Simulated
system.cpu.cpi                               1.224409                       # CPI: Cycles Per Instruction
system.cpu.cpi_total                         1.224409                       # CPI: Total CPI of All Threads
system.cpu.dcache.prefetcher.num_hwpf_issued         8216                       # number of hwpf issued
system.cpu.dcache.prefetcher.pfBufferHit        34613                       # number of redundant prefetches already in prefetch queue
system.cpu.dcache.prefetcher.pfIdentified        50356                       # number of prefetch candidates identified
system.cpu.dcache.prefetcher.pfInCache              0                       # number of redundant prefetches already in cache/mshr dropped
system.cpu.dcache.prefetcher.pfRemovedFull            0                       # number of prefetches dropped due to prefetch queue size
system.cpu.dcache.prefetcher.pfSpanPage          4532                       # number of prefetches that crossed the page
system.cpu.decode.BlockedCycles               1031911                       # Number of cycles decode is blocked
system.cpu.decode.DecodedInsts                5601262                       # Number of instructions handled by decode
system.cpu.decode.IdleCycles                   360585                       # Number of cycles decode is idle
system.cpu.decode.RunCycles                   1385997                       # Number of cycles decode is running
system.cpu.decode.SquashCycles                  24759                       # Number of cycles decode is squashing
system.cpu.decode.UnblockCycles                 90645                       # Number of cycles decode is unblocking
system.cpu.dtb.rdAccesses                      689319                       # TLB accesses on read requests
system.cpu.dtb.rdMisses                          1996                       # TLB misses on read requests
system.cpu.dtb.wrAccesses                      278101                       # TLB accesses on write requests
system.cpu.dtb.wrMisses                           167                       # TLB misses on write requests
system.cpu.fetch.Branches                      570288                       # Number of branches that fetch encountered
system.cpu.fetch.CacheLines                    299730                       # Number of cache lines fetched
system.cpu.fetch.Cycles                       2477004                       # Number of cycles fetch has run and was not squashing or blocked
system.cpu.fetch.IcacheSquashes                  4723                       # Number of outstanding Icache misses that were squashed
system.cpu.fetch.Insts                        3268393                       # Number of instructions fetch has processed
system.cpu.fetch.MiscStallCycles                  159                       # Number of cycles fetch has spent waiting on interrupts, or bad addresses, or out of MSHRs
system.cpu.fetch.PendingQuiesceStallCycles            8                       # Number of stall cycles due to pending quiesce instructions
system.cpu.fetch.PendingTrapStallCycles           770                       # Number of stall cycles due to pending traps
system.cpu.fetch.SquashCycles                   49518                       # Number of cycles fetch has spent squashing
system.cpu.fetch.branchRate                  0.186603                       # Number of branch fetches per cycle
system.cpu.fetch.icacheStallCycles             391197                       # Number of cycles fetch is stalled on an Icache miss
system.cpu.fetch.predictedBranches             290484                       # Number of branches that fetch has predicted taken
system.cpu.fetch.rate                        1.069446                       # Number of inst fetches per cycle
system.cpu.fetch.rateDist::samples            2893897                       # Number of instructions fetched each cycle (Total)
system.cpu.fetch.rateDist::mean              2.031533                       # Number of instructions fetched each cycle (Total)
system.cpu.fetch.rateDist::stdev             1.926179                       # Number of instructions fetched each cycle (Total)
system.cpu.fetch.rateDist::underflows               0      0.00%      0.00% # Number of instructions fetched each cycle (Total)
system.cpu.fetch.rateDist::0                  1297465     44.83%     44.83% # Number of instructions fetched each cycle (Total)
system.cpu.fetch.rateDist::1                    89774      3.10%     47.94% # Number of instructions fetched each cycle (Total)
system.cpu.fetch.rateDist::2                    72759      2.51%     50.45% # Number of instructions fetched each cycle (Total)
system.cpu.fetch.rateDist::3                    91840      3.17%     53.62% # Number of instructions fetched each cycle (Total)
system.cpu.fetch.rateDist::4                  1342059     46.38%    100.00% # Number of instructions fetched each cycle (Total)
system.cpu.fetch.rateDist::overflows                0      0.00%    100.00% # Number of instructions fetched each cycle (Total)
system.cpu.fetch.rateDist::min_value                0                       # Number of instructions fetched each cycle (Total)
system.cpu.fetch.rateDist::max_value                4                       # Number of instructions fetched each cycle (Total)
system.cpu.fetch.rateDist::total              2893897                       # Number of instructions fetched each cycle (Total)
system.cpu.fp_regfile_reads                    208332                       # number of floating regfile reads
system.cpu.fp_regfile_writes                   112257                       # number of floating regfile writes
system.cpu.fuPool.fu_ticks_busy::IntALU(0)    260852800                       # Total ticks fu was busy
system.cpu.fuPool.fu_ticks_busy::IntALU(1)    260852400                       # Total ticks fu was busy
system.cpu.fuPool.fu_ticks_busy::IntALU(2)    260852400                       # Total ticks fu was busy
system.cpu.fuPool.fu_ticks_busy::IntALU(3)    260852400                       # Total ticks fu was busy
system.cpu.fuPool.fu_ticks_busy::IntALU(4)    260852400                       # Total ticks fu was busy
system.cpu.fuPool.fu_ticks_busy::IntALU(5)    260852400                       # Total ticks fu was busy
system.cpu.fuPool.fu_ticks_busy::IntMultDiv(0)      9182000                       # Total ticks fu was busy
system.cpu.fuPool.fu_ticks_busy::IntMultDiv(1)      9181600                       # Total ticks fu was busy
system.cpu.fuPool.fu_ticks_busy::FP_ALU(0)       782400                       # Total ticks fu was busy
system.cpu.fuPool.fu_ticks_busy::FP_ALU(1)       782400                       # Total ticks fu was busy
system.cpu.fuPool.fu_ticks_busy::FP_ALU(2)       782000                       # Total ticks fu was busy
system.cpu.fuPool.fu_ticks_busy::FP_ALU(3)       782000                       # Total ticks fu was busy
system.cpu.fuPool.fu_ticks_busy::FP_MultDiv(0)            0                       # Total ticks fu was busy
system.cpu.fuPool.fu_ticks_busy::FP_MultDiv(1)            0                       # Total ticks fu was busy
system.cpu.fuPool.fu_ticks_busy::SIMD_Unit(0)      7947600                       # Total ticks fu was busy
system.cpu.fuPool.fu_ticks_busy::SIMD_Unit(1)      8106000                       # Total ticks fu was busy
system.cpu.fuPool.fu_ticks_busy::SIMD_Unit(2)      8300800                       # Total ticks fu was busy
system.cpu.fuPool.fu_ticks_busy::SIMD_Unit(3)      7864400                       # Total ticks fu was busy
system.cpu.fuPool.fu_ticks_busy::PredALU(0)            0                       # Total ticks fu was busy
system.cpu.fuPool.fu_ticks_busy::RdWrPort(0)     98292800                       # Total ticks fu was busy
system.cpu.fuPool.fu_ticks_busy::RdWrPort(1)     98048800                       # Total ticks fu was busy
system.cpu.fuPool.fu_ticks_busy::RdWrPort(2)     98318800                       # Total ticks fu was busy
system.cpu.fuPool.fu_ticks_busy::RdWrPort(3)     98140400                       # Total ticks fu was busy
system.cpu.fuPool.fu_ticks_busy::IprPort(0)            0                       # Total ticks fu was busy
system.cpu.fuPool.fu_ticks_busy::total     2011626800                       # Total ticks fu was busy
system.cpu.icache.prefetcher.num_hwpf_issued            0                       # number of hwpf issued
system.cpu.icache.prefetcher.pfBufferHit            0                       # number of redundant prefetches already in prefetch queue
system.cpu.icache.prefetcher.pfIdentified            0                       # number of prefetch candidates identified
system.cpu.icache.prefetcher.pfInCache              0                       # number of redundant prefetches already in cache/mshr dropped
system.cpu.icache.prefetcher.pfRemovedFull            0                       # number of prefetches dropped due to prefetch queue size
system.cpu.icache.prefetcher.pfSpanPage             0                       # number of prefetches that crossed the page
system.cpu.idleCycles                          162259                       # Total number of cycles that the CPU has spent unscheduled due to idling
system.cpu.iew.branchMispredicts                29177                       # Number of branch mispredicts detected at execute
system.cpu.iew.exec_branches                   456424                       # Number of branches executed
system.cpu.iew.exec_nop                             0                       # number of nop insts executed
system.cpu.iew.exec_rate                     1.644238                       # Inst execution rate
system.cpu.iew.exec_refs                       969006                       # number of memory reference insts executed
system.cpu.iew.exec_stores                     278088                       # Number of stores executed
system.cpu.iew.exec_swp                             0                       # number of swp insts executed
system.cpu.iew.iewBlockCycles                  694894                       # Number of cycles IEW is blocking
system.cpu.iew.iewDispLoadInsts                721549                       # Number of dispatched load instructions
system.cpu.iew.iewDispNonSpecInsts                959                       # Number of dispatched non-speculative instructions
system.cpu.iew.iewDispSquashedInsts               557                       # Number of squashed instructions skipped by dispatch
system.cpu.iew.iewDispStoreInsts               288325                       # Number of dispatched store instructions
system.cpu.iew.iewDispatchedInsts             5382463                       # Number of instructions dispatched to IQ
system.cpu.iew.iewExecLoadInsts                690918                       # Number of load instructions executed
system.cpu.iew.iewExecSquashedInsts             34815                       # Number of squashed instructions skipped in execute
system.cpu.iew.iewExecutedInsts               5025049                       # Number of executed instructions
system.cpu.iew.iewIQFullEvents                   3429                       # Number of times the IQ has become full, causing a stall
system.cpu.iew.iewIdleCycles                        0                       # Number of cycles IEW is idle
system.cpu.iew.iewLSQFullEvents                  9565                       # Number of times the LSQ has become full, causing a stall
system.cpu.iew.iewSquashCycles                  24759                       # Number of cycles IEW is squashing
system.cpu.iew.iewUnblockCycles                 15877                       # Number of cycles IEW is unblocking
system.cpu.iew.lsq.thread0.blockedLoads             0                       # Number of blocked loads due to partial load-store forwarding
system.cpu.iew.lsq.thread0.cacheBlocked           620                       # Number of times an access to memory failed due to the cache being blocked
system.cpu.iew.lsq.thread0.forwLoads            53822                       # Number of loads that had data forwarded from stores
system.cpu.iew.lsq.thread0.ignoredResponses          247                       # Number of memory responses ignored because the instruction is squashed
system.cpu.iew.lsq.thread0.invAddrLoads             0                       # Number of loads ignored due to an invalid address
system.cpu.iew.lsq.thread0.invAddrSwpfs             0                       # Number of software prefetches ignored due to an invalid address
system.cpu.iew.lsq.thread0.memOrderViolation           77                       # Number of memory ordering violations
system.cpu.iew.lsq.thread0.rescheduledLoads           10                       # Number of loads that were rescheduled
system.cpu.iew.lsq.thread0.squashedLoads       115486                       # Number of loads squashed
system.cpu.iew.lsq.thread0.squashedStores        30209                       # Number of stores squashed
system.cpu.iew.memOrderViolationEvents             77                       # Number of memory order violations
system.cpu.iew.predictedNotTakenIncorrect        20884                       # Number of branches that were predicted not taken incorrectly
system.cpu.iew.predictedTakenIncorrect           8293                       # Number of branches that were predicted taken incorrectly
system.cpu.iew.wb_consumers                   6854523                       # num instructions consuming a value
system.cpu.iew.wb_count                       5002845                       # cumulative count of insts written-back
system.cpu.iew.wb_fanout                     0.572085                       # average fanout of values written-back
system.cpu.iew.wb_producers                   3921370                       # num instructions producing a value
system.cpu.iew.wb_rate                       1.636973                       # insts written-back per cycle
system.cpu.iew.wb_sent                        5009819                       # cumulative count of insts sent to commit
system.cpu.int_regfile_reads                  7741323                       # number of integer regfile reads
system.cpu.int_regfile_writes                 4233902                       # number of integer regfile writes
system.cpu.ipc                               0.816721                       # IPC: Instructions Per Cycle
system.cpu.ipc_total                         0.816721                       # IPC: Total IPC of All Threads
system.cpu.iq.FU_type_0::No_OpClass             30797      0.61%      0.61% # Type of FU issued
system.cpu.iq.FU_type_0::IntAlu               3912789     77.33%     77.94% # Type of FU issued
system.cpu.iq.FU_type_0::IntMult                 3589      0.07%     78.01% # Type of FU issued
system.cpu.iq.FU_type_0::IntDiv                 42320      0.84%     78.85% # Type of FU issued
system.cpu.iq.FU_type_0::FloatAdd                6510      0.13%     78.97% # Type of FU issued
system.cpu.iq.FU_type_0::FloatCmp                   0      0.00%     78.97% # Type of FU issued
system.cpu.iq.FU_type_0::FloatCvt                1312      0.03%     79.00% # Type of FU issued
system.cpu.iq.FU_type_0::FloatMult                  0      0.00%     79.00% # Type of FU issued
system.cpu.iq.FU_type_0::FloatMultAcc               0      0.00%     79.00% # Type of FU issued
system.cpu.iq.FU_type_0::FloatDiv                   0      0.00%     79.00% # Type of FU issued
system.cpu.iq.FU_type_0::FloatMisc                  0      0.00%     79.00% # Type of FU issued
system.cpu.iq.FU_type_0::FloatSqrt                  0      0.00%     79.00% # Type of FU issued
system.cpu.iq.FU_type_0::SimdAdd                 6933      0.14%     79.14% # Type of FU issued
system.cpu.iq.FU_type_0::SimdAddAcc                 0      0.00%     79.14% # Type of FU issued
system.cpu.iq.FU_type_0::SimdAlu                23304      0.46%     79.60% # Type of FU issued
system.cpu.iq.FU_type_0::SimdCmp                    0      0.00%     79.60% # Type of FU issued
system.cpu.iq.FU_type_0::SimdCvt                22317      0.44%     80.04% # Type of FU issued
system.cpu.iq.FU_type_0::SimdMisc               25685      0.51%     80.55% # Type of FU issued
system.cpu.iq.FU_type_0::SimdMult                   0      0.00%     80.55% # Type of FU issued
system.cpu.iq.FU_type_0::SimdMultAcc                0      0.00%     80.55% # Type of FU issued
system.cpu.iq.FU_type_0::SimdShift               2308      0.05%     80.59% # Type of FU issued
system.cpu.iq.FU_type_0::SimdShiftAcc               0      0.00%     80.59% # Type of FU issued
system.cpu.iq.FU_type_0::SimdDiv                    0      0.00%     80.59% # Type of FU issued
system.cpu.iq.FU_type_0::SimdSqrt                   0      0.00%     80.59% # Type of FU issued
system.cpu.iq.FU_type_0::SimdFloatAdd               0      0.00%     80.59% # Type of FU issued
system.cpu.iq.FU_type_0::SimdFloatAlu               0      0.00%     80.59% # Type of FU issued
system.cpu.iq.FU_type_0::SimdFloatCmp               0      0.00%     80.59% # Type of FU issued
system.cpu.iq.FU_type_0::SimdFloatCvt               0      0.00%     80.59% # Type of FU issued
system.cpu.iq.FU_type_0::SimdFloatDiv               0      0.00%     80.59% # Type of FU issued
system.cpu.iq.FU_type_0::SimdFloatMisc              0      0.00%     80.59% # Type of FU issued
system.cpu.iq.FU_type_0::SimdFloatMult              0      0.00%     80.59% # Type of FU issued
system.cpu.iq.FU_type_0::SimdFloatMultAcc            0      0.00%     80.59% # Type of FU issued
system.cpu.iq.FU_type_0::SimdFloatSqrt              0      0.00%     80.59% # Type of FU issued
system.cpu.iq.FU_type_0::SimdReduceAdd              0      0.00%     80.59% # Type of FU issued
system.cpu.iq.FU_type_0::SimdReduceAlu              0      0.00%     80.59% # Type of FU issued
system.cpu.iq.FU_type_0::SimdReduceCmp              0      0.00%     80.59% # Type of FU issued
system.cpu.iq.FU_type_0::SimdFloatReduceAdd            0      0.00%     80.59% # Type of FU issued
system.cpu.iq.FU_type_0::SimdFloatReduceCmp            0      0.00%     80.59% # Type of FU issued
system.cpu.iq.FU_type_0::SimdAes                    0      0.00%     80.59% # Type of FU issued
system.cpu.iq.FU_type_0::SimdAesMix                 0      0.00%     80.59% # Type of FU issued
system.cpu.iq.FU_type_0::SimdSha1Hash               0      0.00%     80.59% # Type of FU issued
system.cpu.iq.FU_type_0::SimdSha1Hash2              0      0.00%     80.59% # Type of FU issued
system.cpu.iq.FU_type_0::SimdSha256Hash             0      0.00%     80.59% # Type of FU issued
system.cpu.iq.FU_type_0::SimdSha256Hash2            0      0.00%     80.59% # Type of FU issued
system.cpu.iq.FU_type_0::SimdShaSigma2              0      0.00%     80.59% # Type of FU issued
system.cpu.iq.FU_type_0::SimdShaSigma3              0      0.00%     80.59% # Type of FU issued
system.cpu.iq.FU_type_0::SimdPredAlu                0      0.00%     80.59% # Type of FU issued
system.cpu.iq.FU_type_0::MemRead               669470     13.23%     93.82% # Type of FU issued
system.cpu.iq.FU_type_0::MemWrite              264933      5.24%     99.06% # Type of FU issued
system.cpu.iq.FU_type_0::FloatMemRead           31778      0.63%     99.69% # Type of FU issued
system.cpu.iq.FU_type_0::FloatMemWrite          15823      0.31%    100.00% # Type of FU issued
system.cpu.iq.FU_type_0::IprAccess                  0      0.00%    100.00% # Type of FU issued
system.cpu.iq.FU_type_0::InstPrefetch               0      0.00%    100.00% # Type of FU issued
system.cpu.iq.FU_type_0::total                5059868                       # Type of FU issued
system.cpu.iq.fp_alu_accesses                  143172                       # Number of floating point alu accesses
system.cpu.iq.fp_inst_queue_reads              287690                       # Number of floating instruction queue reads
system.cpu.iq.fp_inst_queue_wakeup_accesses       139622                       # Number of floating instruction queue wakeup accesses
system.cpu.iq.fp_inst_queue_writes             186693                       # Number of floating instruction queue writes
system.cpu.iq.fu_busy_cnt                           0                       # FU busy when requested
system.cpu.iq.fu_busy_rate                          0                       # FU busy rate (busy events/executed inst)
system.cpu.iq.fu_full::No_OpClass                   0                       # attempts to use FU when none available
system.cpu.iq.fu_full::IntAlu                       0                       # attempts to use FU when none available
system.cpu.iq.fu_full::IntMult                      0                       # attempts to use FU when none available
system.cpu.iq.fu_full::IntDiv                       0                       # attempts to use FU when none available
system.cpu.iq.fu_full::FloatAdd                     0                       # attempts to use FU when none available
system.cpu.iq.fu_full::FloatCmp                     0                       # attempts to use FU when none available
system.cpu.iq.fu_full::FloatCvt                     0                       # attempts to use FU when none available
system.cpu.iq.fu_full::FloatMult                    0                       # attempts to use FU when none available
system.cpu.iq.fu_full::FloatMultAcc                 0                       # attempts to use FU when none available
system.cpu.iq.fu_full::FloatDiv                     0                       # attempts to use FU when none available
system.cpu.iq.fu_full::FloatMisc                    0                       # attempts to use FU when none available
system.cpu.iq.fu_full::FloatSqrt                    0                       # attempts to use FU when none available
system.cpu.iq.fu_full::SimdAdd                      0                       # attempts to use FU when none available
system.cpu.iq.fu_full::SimdAddAcc                   0                       # attempts to use FU when none available
system.cpu.iq.fu_full::SimdAlu                      0                       # attempts to use FU when none available
system.cpu.iq.fu_full::SimdCmp                      0                       # attempts to use FU when none available
system.cpu.iq.fu_full::SimdCvt                      0                       # attempts to use FU when none available
system.cpu.iq.fu_full::SimdMisc                     0                       # attempts to use FU when none available
system.cpu.iq.fu_full::SimdMult                     0                       # attempts to use FU when none available
system.cpu.iq.fu_full::SimdMultAcc                  0                       # attempts to use FU when none available
system.cpu.iq.fu_full::SimdShift                    0                       # attempts to use FU when none available
system.cpu.iq.fu_full::SimdShiftAcc                 0                       # attempts to use FU when none available
system.cpu.iq.fu_full::SimdDiv                      0                       # attempts to use FU when none available
system.cpu.iq.fu_full::SimdSqrt                     0                       # attempts to use FU when none available
system.cpu.iq.fu_full::SimdFloatAdd                 0                       # attempts to use FU when none available
system.cpu.iq.fu_full::SimdFloatAlu                 0                       # attempts to use FU when none available
system.cpu.iq.fu_full::SimdFloatCmp                 0                       # attempts to use FU when none available
system.cpu.iq.fu_full::SimdFloatCvt                 0                       # attempts to use FU when none available
system.cpu.iq.fu_full::SimdFloatDiv                 0                       # attempts to use FU when none available
system.cpu.iq.fu_full::SimdFloatMisc                0                       # attempts to use FU when none available
system.cpu.iq.fu_full::SimdFloatMult                0                       # attempts to use FU when none available
system.cpu.iq.fu_full::SimdFloatMultAcc             0                       # attempts to use FU when none available
system.cpu.iq.fu_full::SimdFloatSqrt                0                       # attempts to use FU when none available
system.cpu.iq.fu_full::SimdReduceAdd                0                       # attempts to use FU when none available
system.cpu.iq.fu_full::SimdReduceAlu                0                       # attempts to use FU when none available
system.cpu.iq.fu_full::SimdReduceCmp                0                       # attempts to use FU when none available
system.cpu.iq.fu_full::SimdFloatReduceAdd            0                       # attempts to use FU when none available
system.cpu.iq.fu_full::SimdFloatReduceCmp            0                       # attempts to use FU when none available
system.cpu.iq.fu_full::SimdAes                      0                       # attempts to use FU when none available
system.cpu.iq.fu_full::SimdAesMix                   0                       # attempts to use FU when none available
system.cpu.iq.fu_full::SimdSha1Hash                 0                       # attempts to use FU when none available
system.cpu.iq.fu_full::SimdSha1Hash2                0                       # attempts to use FU when none available
system.cpu.iq.fu_full::SimdSha256Hash               0                       # attempts to use FU when none available
system.cpu.iq.fu_full::SimdSha256Hash2              0                       # attempts to use FU when none available
system.cpu.iq.fu_full::SimdShaSigma2                0                       # attempts to use FU when none available
system.cpu.iq.fu_full::SimdShaSigma3                0                       # attempts to use FU when none available
system.cpu.iq.fu_full::SimdPredAlu                  0                       # attempts to use FU when none available
system.cpu.iq.fu_full::MemRead                      0                       # attempts to use FU when none available
system.cpu.iq.fu_full::MemWrite                     0                       # attempts to use FU when none available
system.cpu.iq.fu_full::FloatMemRead                 0                       # attempts to use FU when none available
system.cpu.iq.fu_full::FloatMemWrite                0                       # attempts to use FU when none available
system.cpu.iq.fu_full::IprAccess                    0                       # attempts to use FU when none available
system.cpu.iq.fu_full::InstPrefetch                 0                       # attempts to use FU when none available
system.cpu.iq.int_alu_accesses                4885899                       # Number of integer alu accesses
system.cpu.iq.int_inst_queue_reads           12744021                       # Number of integer instruction queue reads
system.cpu.iq.int_inst_queue_wakeup_accesses      4863223                       # Number of integer instruction queue wakeup accesses
system.cpu.iq.int_inst_queue_writes           6086686                       # Number of integer instruction queue writes
system.cpu.iq.iqInstsAdded                    5381312                       # Number of instructions added to the IQ (excludes non-spec)
system.cpu.iq.iqInstsIssued                   5059868                       # Number of instructions issued
system.cpu.iq.iqNonSpecInstsAdded                1151                       # Number of non-speculative instructions added to the IQ
system.cpu.iq.iqSquashedInstsExamined          890840                       # Number of squashed instructions iterated over during squash; mainly for profiling
system.cpu.iq.iqSquashedInstsIssued             18082                       # Number of squashed instructions issued
system.cpu.iq.iqSquashedNonSpecRemoved            391                       # Number of squashed non-spec instructions that were removed
system.cpu.iq.iqSquashedOperandsExamined      1328399                       # Number of squashed operands that are examined and possibly removed from graph
system.cpu.iq.issued_per_cycle::samples       2893897                       # Number of insts issued each cycle
system.cpu.iq.issued_per_cycle::mean         1.748462                       # Number of insts issued each cycle
system.cpu.iq.issued_per_cycle::stdev        1.668030                       # Number of insts issued each cycle
system.cpu.iq.issued_per_cycle::underflows            0      0.00%      0.00% # Number of insts issued each cycle
system.cpu.iq.issued_per_cycle::0             1187326     41.03%     41.03% # Number of insts issued each cycle
system.cpu.iq.issued_per_cycle::1              203960      7.05%     48.08% # Number of insts issued each cycle
system.cpu.iq.issued_per_cycle::2              367378     12.69%     60.77% # Number of insts issued each cycle
system.cpu.iq.issued_per_cycle::3              419780     14.51%     75.28% # Number of insts issued each cycle
system.cpu.iq.issued_per_cycle::4              715453     24.72%    100.00% # Number of insts issued each cycle
system.cpu.iq.issued_per_cycle::overflows            0      0.00%    100.00% # Number of insts issued each cycle
system.cpu.iq.issued_per_cycle::min_value            0                       # Number of insts issued each cycle
system.cpu.iq.issued_per_cycle::max_value            4                       # Number of insts issued each cycle
system.cpu.iq.issued_per_cycle::total         2893897                       # Number of insts issued each cycle
system.cpu.iq.rate                           1.655631                       # Inst issue rate
system.cpu.iq.vec_alu_accesses                      0                       # Number of vector alu accesses
system.cpu.iq.vec_inst_queue_reads                  0                       # Number of vector instruction queue reads
system.cpu.iq.vec_inst_queue_wakeup_accesses            0                       # Number of vector instruction queue wakeup accesses
system.cpu.iq.vec_inst_queue_writes                 0                       # Number of vector instruction queue writes
system.cpu.itb.rdAccesses                           0                       # TLB accesses on read requests
system.cpu.itb.rdMisses                             0                       # TLB misses on read requests
system.cpu.itb.wrAccesses                      299863                       # TLB accesses on write requests
system.cpu.itb.wrMisses                           387                       # TLB misses on write requests
system.cpu.memDep0.conflictingLoads             11360                       # Number of conflicting loads.
system.cpu.memDep0.conflictingStores             6990                       # Number of conflicting stores.
system.cpu.memDep0.insertedLoads               721549                       # Number of loads inserted to the mem dependence unit.
system.cpu.memDep0.insertedStores              288325                       # Number of stores inserted to the mem dependence unit.
system.cpu.misc_regfile_reads                 1924168                       # number of misc regfile reads
system.cpu.misc_regfile_writes                    702                       # number of misc regfile writes
system.cpu.numCycles                          3056156                       # number of cpu cycles simulated
system.cpu.numWorkItemsCompleted                    0                       # number of work items this cpu completed
system.cpu.numWorkItemsStarted                      0                       # number of work items this cpu started
system.cpu.process.numSyscalls                     57                       # Number of system calls
system.cpu.rename.BlockCycles                  843724                       # Number of cycles rename is blocking
system.cpu.rename.CommittedMaps               5906864                       # Number of HB maps that are committed
system.cpu.rename.FullRegisterEvents               56                       # Number of times there has been no free registers
system.cpu.rename.IQFullEvents                  48145                       # Number of times rename has blocked due to IQ full
system.cpu.rename.IdleCycles                   411972                       # Number of cycles rename is idle
system.cpu.rename.LQFullEvents                  15159                       # Number of times rename has blocked due to LQ full
system.cpu.rename.ROBFullEvents                  4910                       # Number of times rename has blocked due to ROB full
system.cpu.rename.RenameLookups              14377257                       # Number of register rename lookups that rename has made
system.cpu.rename.RenamedInsts                5525306                       # Number of instructions processed by rename
system.cpu.rename.RenamedOperands             7312893                       # Number of destination operands rename has renamed
system.cpu.rename.RunCycles                   1416576                       # Number of cycles rename is running
system.cpu.rename.SQFullEvents                  74794                       # Number of times rename has blocked due to SQ full
system.cpu.rename.SquashCycles                  24759                       # Number of cycles rename is squashing
system.cpu.rename.UnblockCycles                176184                       # Number of cycles rename is unblocking
system.cpu.rename.UndoneMaps                  1406003                       # Number of HB maps that are undone due to squashing
system.cpu.rename.fp_rename_lookups            245738                       # Number of floating rename lookups
system.cpu.rename.int_rename_lookups          8697593                       # Number of integer rename lookups
system.cpu.rename.serializeStallCycles          20682                       # count of cycles rename stalled for serializing inst
system.cpu.rename.serializingInsts                899                       # count of serializing insts renamed
system.cpu.rename.skidInsts                    212062                       # count of insts added to the skid buffer
system.cpu.rename.tempSerializingInsts            953                       # count of temporary serializing insts renamed
system.cpu.rob.rob_reads                      7282611                       # The number of ROB reads
system.cpu.rob.rob_writes                    11008548                       # The number of ROB writes
system.cpu.timesIdled                            1643                       # Number of times that the entire CPU went into an idle state and unscheduled itself
system.l2bus.snoop_filter.hit_multi_requests           13                       # Number of requests hitting in the snoop filter with multiple (>1) holders of the requested data.
system.l2bus.snoop_filter.hit_multi_snoops            0                       # Number of snoops hitting in the snoop filter with multiple (>1) holders of the requested data.
system.l2bus.snoop_filter.hit_single_requests        18656                       # Number of requests hitting in the snoop filter with a single holder of the requested data.
system.l2bus.snoop_filter.hit_single_snoops          444                       # Number of snoops hitting in the snoop filter with a single holder of the requested data.
system.l2bus.snoop_filter.tot_requests          38592                       # Total number of requests made to the snoop filter.
system.l2bus.snoop_filter.tot_snoops              444                       # Total number of snoops made to the snoop filter.
system.l2cache.prefetcher.num_hwpf_issued          693                       # number of hwpf issued
system.l2cache.prefetcher.pfBufferHit               0                       # number of redundant prefetches already in prefetch queue
system.l2cache.prefetcher.pfIdentified            693                       # number of prefetch candidates identified
system.l2cache.prefetcher.pfInCache                 0                       # number of redundant prefetches already in cache/mshr dropped
system.l2cache.prefetcher.pfRemovedFull             0                       # number of prefetches dropped due to prefetch queue size
system.l2cache.prefetcher.pfSpanPage               99                       # number of prefetches that crossed the page
system.membus.snoop_filter.hit_multi_requests            0                       # Number of requests hitting in the snoop filter with multiple (>1) holders of the requested data.
system.membus.snoop_filter.hit_multi_snoops            0                       # Number of snoops hitting in the snoop filter with multiple (>1) holders of the requested data.
system.membus.snoop_filter.hit_single_requests         9509                       # Number of requests hitting in the snoop filter with a single holder of the requested data.
system.membus.snoop_filter.hit_single_snoops            0                       # Number of snoops hitting in the snoop filter with a single holder of the requested data.
system.membus.snoop_filter.tot_requests         23138                       # Total number of requests made to the snoop filter.
system.membus.snoop_filter.tot_snoops               0                       # Total number of snoops made to the snoop filter.
system.membus.pwrStateResidencyTicks::UNDEFINED   1222462000                       # Cumulative time (in ticks) in various power states
system.membus.trans_dist::ReadResp              12274                       # Transaction distribution
system.membus.trans_dist::WritebackDirty         1354                       # Transaction distribution
system.membus.trans_dist::CleanEvict             8155                       # Transaction distribution
system.membus.trans_dist::ReadExReq              1355                       # Transaction distribution
system.membus.trans_dist::ReadExResp             1355                       # Transaction distribution
system.membus.trans_dist::ReadSharedReq         12274                       # Transaction distribution
system.membus.pkt_count_system.l2cache.mem_side::system.mem_ctrl.port        36767                       # Packet count per connected master and slave (bytes)
system.membus.pkt_count_system.l2cache.mem_side::total        36767                       # Packet count per connected master and slave (bytes)
system.membus.pkt_count::total                  36767                       # Packet count per connected master and slave (bytes)
system.membus.pkt_size_system.l2cache.mem_side::system.mem_ctrl.port       958912                       # Cumulative packet size per connected master and slave (bytes)
system.membus.pkt_size_system.l2cache.mem_side::total       958912                       # Cumulative packet size per connected master and slave (bytes)
system.membus.pkt_size::total                  958912                       # Cumulative packet size per connected master and slave (bytes)
system.membus.snoops                                0                       # Total snoops (count)
system.membus.snoopTraffic                          0                       # Total snoop traffic (bytes)
system.membus.snoop_fanout::samples             13629                       # Request fanout histogram
system.membus.snoop_fanout::mean                    0                       # Request fanout histogram
system.membus.snoop_fanout::stdev                   0                       # Request fanout histogram
system.membus.snoop_fanout::underflows              0      0.00%      0.00% # Request fanout histogram
system.membus.snoop_fanout::0                   13629    100.00%    100.00% # Request fanout histogram
system.membus.snoop_fanout::1                       0      0.00%    100.00% # Request fanout histogram
system.membus.snoop_fanout::overflows               0      0.00%    100.00% # Request fanout histogram
system.membus.snoop_fanout::min_value               0                       # Request fanout histogram
system.membus.snoop_fanout::max_value               0                       # Request fanout histogram
system.membus.snoop_fanout::total               13629                       # Request fanout histogram
system.membus.reqLayer2.occupancy            11448195                       # Layer occupancy (ticks)
system.membus.reqLayer2.utilization               0.9                       # Layer utilization (%)
system.membus.respLayer0.occupancy           29593105                       # Layer occupancy (ticks)
system.membus.respLayer0.utilization              2.4                       # Layer utilization (%)
system.l2bus.pwrStateResidencyTicks::UNDEFINED   1222462000                       # Cumulative time (in ticks) in various power states
system.l2bus.trans_dist::ReadResp               17814                       # Transaction distribution
system.l2bus.trans_dist::WritebackDirty          4155                       # Transaction distribution
system.l2bus.trans_dist::CleanEvict             24096                       # Transaction distribution
system.l2bus.trans_dist::HardPFReq                971                       # Transaction distribution
system.l2bus.trans_dist::ReadExReq               2122                       # Transaction distribution
system.l2bus.trans_dist::ReadExResp              2122                       # Transaction distribution
system.l2bus.trans_dist::ReadSharedReq          17814                       # Transaction distribution
system.l2bus.pkt_count_system.cpu.icache.mem_side::system.l2cache.cpu_side         8465                       # Packet count per connected master and slave (bytes)
system.l2bus.pkt_count_system.cpu.dcache.mem_side::system.l2cache.cpu_side        50058                       # Packet count per connected master and slave (bytes)
system.l2bus.pkt_count::total                   58523                       # Packet count per connected master and slave (bytes)
system.l2bus.pkt_size_system.cpu.icache.mem_side::system.l2cache.cpu_side       186048                       # Cumulative packet size per connected master and slave (bytes)
system.l2bus.pkt_size_system.cpu.dcache.mem_side::system.l2cache.cpu_side      1268800                       # Cumulative packet size per connected master and slave (bytes)
system.l2bus.pkt_size::total                  1454848                       # Cumulative packet size per connected master and slave (bytes)
system.l2bus.snoops                             10571                       # Total snoops (count)
system.l2bus.snoopTraffic                       86976                       # Total snoop traffic (bytes)
system.l2bus.snoop_fanout::samples              30502                       # Request fanout histogram
system.l2bus.snoop_fanout::mean              0.014983                       # Request fanout histogram
system.l2bus.snoop_fanout::stdev             0.121485                       # Request fanout histogram
system.l2bus.snoop_fanout::underflows               0      0.00%      0.00% # Request fanout histogram
system.l2bus.snoop_fanout::0                    30045     98.50%     98.50% # Request fanout histogram
system.l2bus.snoop_fanout::1                      457      1.50%    100.00% # Request fanout histogram
system.l2bus.snoop_fanout::2                        0      0.00%    100.00% # Request fanout histogram
system.l2bus.snoop_fanout::overflows                0      0.00%    100.00% # Request fanout histogram
system.l2bus.snoop_fanout::min_value                0                       # Request fanout histogram
system.l2bus.snoop_fanout::max_value                1                       # Request fanout histogram
system.l2bus.snoop_fanout::total                30502                       # Request fanout histogram
system.l2bus.respLayer1.occupancy            20434398                       # Layer occupancy (ticks)
system.l2bus.respLayer1.utilization               1.7                       # Layer utilization (%)
system.l2bus.reqLayer0.occupancy             19121799                       # Layer occupancy (ticks)
system.l2bus.reqLayer0.utilization                1.6                       # Layer utilization (%)
system.l2bus.respLayer0.occupancy             3490398                       # Layer occupancy (ticks)
system.l2bus.respLayer0.utilization               0.3                       # Layer utilization (%)
system.clk_domain.clock                           400                       # Clock period in ticks
system.clk_domain.voltage_domain.voltage            1                       # Voltage in Volts
system.cpu.pwrStateResidencyTicks::ON      1222462000                       # Cumulative time (in ticks) in various power states
system.cpu.icache.pwrStateResidencyTicks::UNDEFINED   1222462000                       # Cumulative time (in ticks) in various power states
system.cpu.icache.demand_hits::.cpu.inst       296109                       # number of demand (read+write) hits
system.cpu.icache.demand_hits::total           296109                       # number of demand (read+write) hits
system.cpu.icache.overall_hits::.cpu.inst       296109                       # number of overall hits
system.cpu.icache.overall_hits::total          296109                       # number of overall hits
system.cpu.icache.demand_misses::.cpu.inst         3620                       # number of demand (read+write) misses
system.cpu.icache.demand_misses::total           3620                       # number of demand (read+write) misses
system.cpu.icache.overall_misses::.cpu.inst         3620                       # number of overall misses
system.cpu.icache.overall_misses::total          3620                       # number of overall misses
system.cpu.icache.demand_miss_latency::.cpu.inst    178229600                       # number of demand (read+write) miss cycles
system.cpu.icache.demand_miss_latency::total    178229600                       # number of demand (read+write) miss cycles
system.cpu.icache.overall_miss_latency::.cpu.inst    178229600                       # number of overall miss cycles
system.cpu.icache.overall_miss_latency::total    178229600                       # number of overall miss cycles
system.cpu.icache.demand_accesses::.cpu.inst       299729                       # number of demand (read+write) accesses
system.cpu.icache.demand_accesses::total       299729                       # number of demand (read+write) accesses
system.cpu.icache.overall_accesses::.cpu.inst       299729                       # number of overall (read+write) accesses
system.cpu.icache.overall_accesses::total       299729                       # number of overall (read+write) accesses
system.cpu.icache.demand_miss_rate::.cpu.inst     0.012078                       # miss rate for demand accesses
system.cpu.icache.demand_miss_rate::total     0.012078                       # miss rate for demand accesses
system.cpu.icache.overall_miss_rate::.cpu.inst     0.012078                       # miss rate for overall accesses
system.cpu.icache.overall_miss_rate::total     0.012078                       # miss rate for overall accesses
system.cpu.icache.demand_avg_miss_latency::.cpu.inst 49234.696133                       # average overall miss latency
system.cpu.icache.demand_avg_miss_latency::total 49234.696133                       # average overall miss latency
system.cpu.icache.overall_avg_miss_latency::.cpu.inst 49234.696133                       # average overall miss latency
system.cpu.icache.overall_avg_miss_latency::total 49234.696133                       # average overall miss latency
system.cpu.icache.blocked_cycles::no_mshrs           60                       # number of cycles access was blocked
system.cpu.icache.blocked_cycles::no_targets            0                       # number of cycles access was blocked
system.cpu.icache.blocked::no_mshrs                 3                       # number of cycles access was blocked
system.cpu.icache.blocked::no_targets               0                       # number of cycles access was blocked
system.cpu.icache.avg_blocked_cycles::no_mshrs           20                       # average number of cycles each access was blocked
system.cpu.icache.avg_blocked_cycles::no_targets          nan                       # average number of cycles each access was blocked
system.cpu.icache.writebacks::.writebacks            2                       # number of writebacks
system.cpu.icache.writebacks::total                 2                       # number of writebacks
system.cpu.icache.demand_mshr_hits::.cpu.inst          712                       # number of demand (read+write) MSHR hits
system.cpu.icache.demand_mshr_hits::total          712                       # number of demand (read+write) MSHR hits
system.cpu.icache.overall_mshr_hits::.cpu.inst          712                       # number of overall MSHR hits
system.cpu.icache.overall_mshr_hits::total          712                       # number of overall MSHR hits
system.cpu.icache.demand_mshr_misses::.cpu.inst         2908                       # number of demand (read+write) MSHR misses
system.cpu.icache.demand_mshr_misses::total         2908                       # number of demand (read+write) MSHR misses
system.cpu.icache.overall_mshr_misses::.cpu.inst         2908                       # number of overall MSHR misses
system.cpu.icache.overall_mshr_misses::total         2908                       # number of overall MSHR misses
system.cpu.icache.demand_mshr_miss_latency::.cpu.inst    143544400                       # number of demand (read+write) MSHR miss cycles
system.cpu.icache.demand_mshr_miss_latency::total    143544400                       # number of demand (read+write) MSHR miss cycles
system.cpu.icache.overall_mshr_miss_latency::.cpu.inst    143544400                       # number of overall MSHR miss cycles
system.cpu.icache.overall_mshr_miss_latency::total    143544400                       # number of overall MSHR miss cycles
system.cpu.icache.demand_mshr_miss_rate::.cpu.inst     0.009702                       # mshr miss rate for demand accesses
system.cpu.icache.demand_mshr_miss_rate::total     0.009702                       # mshr miss rate for demand accesses
system.cpu.icache.overall_mshr_miss_rate::.cpu.inst     0.009702                       # mshr miss rate for overall accesses
system.cpu.icache.overall_mshr_miss_rate::total     0.009702                       # mshr miss rate for overall accesses
system.cpu.icache.demand_avg_mshr_miss_latency::.cpu.inst 49361.898212                       # average overall mshr miss latency
system.cpu.icache.demand_avg_mshr_miss_latency::total 49361.898212                       # average overall mshr miss latency
system.cpu.icache.overall_avg_mshr_miss_latency::.cpu.inst 49361.898212                       # average overall mshr miss latency
system.cpu.icache.overall_avg_mshr_miss_latency::total 49361.898212                       # average overall mshr miss latency
system.cpu.icache.replacements                   2652                       # number of replacements
system.cpu.icache.ReadReq_hits::.cpu.inst       296109                       # number of ReadReq hits
system.cpu.icache.ReadReq_hits::total          296109                       # number of ReadReq hits
system.cpu.icache.ReadReq_misses::.cpu.inst         3620                       # number of ReadReq misses
system.cpu.icache.ReadReq_misses::total          3620                       # number of ReadReq misses
system.cpu.icache.ReadReq_miss_latency::.cpu.inst    178229600                       # number of ReadReq miss cycles
system.cpu.icache.ReadReq_miss_latency::total    178229600                       # number of ReadReq miss cycles
system.cpu.icache.ReadReq_accesses::.cpu.inst       299729                       # number of ReadReq accesses(hits+misses)
system.cpu.icache.ReadReq_accesses::total       299729                       # number of ReadReq accesses(hits+misses)
system.cpu.icache.ReadReq_miss_rate::.cpu.inst     0.012078                       # miss rate for ReadReq accesses
system.cpu.icache.ReadReq_miss_rate::total     0.012078                       # miss rate for ReadReq accesses
system.cpu.icache.ReadReq_avg_miss_latency::.cpu.inst 49234.696133                       # average ReadReq miss latency
system.cpu.icache.ReadReq_avg_miss_latency::total 49234.696133                       # average ReadReq miss latency
system.cpu.icache.ReadReq_mshr_hits::.cpu.inst          712                       # number of ReadReq MSHR hits
system.cpu.icache.ReadReq_mshr_hits::total          712                       # number of ReadReq MSHR hits
system.cpu.icache.ReadReq_mshr_misses::.cpu.inst         2908                       # number of ReadReq MSHR misses
system.cpu.icache.ReadReq_mshr_misses::total         2908                       # number of ReadReq MSHR misses
system.cpu.icache.ReadReq_mshr_miss_latency::.cpu.inst    143544400                       # number of ReadReq MSHR miss cycles
system.cpu.icache.ReadReq_mshr_miss_latency::total    143544400                       # number of ReadReq MSHR miss cycles
system.cpu.icache.ReadReq_mshr_miss_rate::.cpu.inst     0.009702                       # mshr miss rate for ReadReq accesses
system.cpu.icache.ReadReq_mshr_miss_rate::total     0.009702                       # mshr miss rate for ReadReq accesses
system.cpu.icache.ReadReq_avg_mshr_miss_latency::.cpu.inst 49361.898212                       # average ReadReq mshr miss latency
system.cpu.icache.ReadReq_avg_mshr_miss_latency::total 49361.898212                       # average ReadReq mshr miss latency
system.cpu.icache.prefetcher.pwrStateResidencyTicks::UNDEFINED   1222462000                       # Cumulative time (in ticks) in various power states
system.cpu.icache.tags.pwrStateResidencyTicks::UNDEFINED   1222462000                       # Cumulative time (in ticks) in various power states
system.cpu.icache.tags.tagsinuse           253.750947                       # Cycle average of tags in use
system.cpu.icache.tags.total_refs              272117                       # Total number of references to valid blocks.
system.cpu.icache.tags.sampled_refs              2652                       # Sample count of references to valid blocks.
system.cpu.icache.tags.avg_refs            102.608220                       # Average number of references to valid blocks.
system.cpu.icache.tags.warmup_cycle             66400                       # Cycle when the warmup percentage was hit.
system.cpu.icache.tags.occ_blocks::.cpu.inst   253.750947                       # Average occupied blocks per requestor
system.cpu.icache.tags.occ_percent::.cpu.inst     0.991215                       # Average percentage of cache occupancy
system.cpu.icache.tags.occ_percent::total     0.991215                       # Average percentage of cache occupancy
system.cpu.icache.tags.occ_task_id_blocks::1024          256                       # Occupied blocks per task id
system.cpu.icache.tags.age_task_id_blocks_1024::0          117                       # Occupied blocks per task id
system.cpu.icache.tags.age_task_id_blocks_1024::2          139                       # Occupied blocks per task id
system.cpu.icache.tags.occ_task_id_percent::1024            1                       # Percentage of cache occupancy per task id
system.cpu.icache.tags.tag_accesses            602366                       # Number of tag accesses
system.cpu.icache.tags.data_accesses           602366                       # Number of data accesses
system.cpu.dtb.walker.pwrStateResidencyTicks::UNDEFINED   1222462000                       # Cumulative time (in ticks) in various power states
system.cpu.interrupts.clk_domain.clock           6400                       # Clock period in ticks
system.cpu.itb.walker.pwrStateResidencyTicks::UNDEFINED   1222462000                       # Cumulative time (in ticks) in various power states
system.cpu.dcache.pwrStateResidencyTicks::UNDEFINED   1222462000                       # Cumulative time (in ticks) in various power states
system.cpu.dcache.demand_hits::.cpu.data       857751                       # number of demand (read+write) hits
system.cpu.dcache.demand_hits::total           857751                       # number of demand (read+write) hits
system.cpu.dcache.overall_hits::.cpu.data       857751                       # number of overall hits
system.cpu.dcache.overall_hits::total          857751                       # number of overall hits
system.cpu.dcache.demand_misses::.cpu.data        34781                       # number of demand (read+write) misses
system.cpu.dcache.demand_misses::total          34781                       # number of demand (read+write) misses
system.cpu.dcache.overall_misses::.cpu.data        34781                       # number of overall misses
system.cpu.dcache.overall_misses::total         34781                       # number of overall misses
system.cpu.dcache.demand_miss_latency::.cpu.data   1684918799                       # number of demand (read+write) miss cycles
system.cpu.dcache.demand_miss_latency::total   1684918799                       # number of demand (read+write) miss cycles
system.cpu.dcache.overall_miss_latency::.cpu.data   1684918799                       # number of overall miss cycles
system.cpu.dcache.overall_miss_latency::total   1684918799                       # number of overall miss cycles
system.cpu.dcache.demand_accesses::.cpu.data       892532                       # number of demand (read+write) accesses
system.cpu.dcache.demand_accesses::total       892532                       # number of demand (read+write) accesses
system.cpu.dcache.overall_accesses::.cpu.data       892532                       # number of overall (read+write) accesses
system.cpu.dcache.overall_accesses::total       892532                       # number of overall (read+write) accesses
system.cpu.dcache.demand_miss_rate::.cpu.data     0.038969                       # miss rate for demand accesses
system.cpu.dcache.demand_miss_rate::total     0.038969                       # miss rate for demand accesses
system.cpu.dcache.overall_miss_rate::.cpu.data     0.038969                       # miss rate for overall accesses
system.cpu.dcache.overall_miss_rate::total     0.038969                       # miss rate for overall accesses
system.cpu.dcache.demand_avg_miss_latency::.cpu.data 48443.655990                       # average overall miss latency
system.cpu.dcache.demand_avg_miss_latency::total 48443.655990                       # average overall miss latency
system.cpu.dcache.overall_avg_miss_latency::.cpu.data 48443.655990                       # average overall miss latency
system.cpu.dcache.overall_avg_miss_latency::total 48443.655990                       # average overall miss latency
system.cpu.dcache.blocked_cycles::no_mshrs        28703                       # number of cycles access was blocked
system.cpu.dcache.blocked_cycles::no_targets          201                       # number of cycles access was blocked
system.cpu.dcache.blocked::no_mshrs               781                       # number of cycles access was blocked
system.cpu.dcache.blocked::no_targets               2                       # number of cycles access was blocked
system.cpu.dcache.avg_blocked_cycles::no_mshrs    36.751601                       # average number of cycles each access was blocked
system.cpu.dcache.avg_blocked_cycles::no_targets   100.500000                       # average number of cycles each access was blocked
system.cpu.dcache.unused_prefetches              1782                       # number of HardPF blocks evicted w/o reference
system.cpu.dcache.writebacks::.writebacks         2799                       # number of writebacks
system.cpu.dcache.writebacks::total              2799                       # number of writebacks
system.cpu.dcache.demand_mshr_hits::.cpu.data        22137                       # number of demand (read+write) MSHR hits
system.cpu.dcache.demand_mshr_hits::total        22137                       # number of demand (read+write) MSHR hits
system.cpu.dcache.overall_mshr_hits::.cpu.data        22137                       # number of overall MSHR hits
system.cpu.dcache.overall_mshr_hits::total        22137                       # number of overall MSHR hits
system.cpu.dcache.demand_mshr_misses::.cpu.data        12644                       # number of demand (read+write) MSHR misses
system.cpu.dcache.demand_mshr_misses::total        12644                       # number of demand (read+write) MSHR misses
system.cpu.dcache.overall_mshr_misses::.cpu.data        12644                       # number of overall MSHR misses
system.cpu.dcache.overall_mshr_misses::.cpu.dcache.prefetcher         4384                       # number of overall MSHR misses
system.cpu.dcache.overall_mshr_misses::total        17028                       # number of overall MSHR misses
system.cpu.dcache.demand_mshr_miss_latency::.cpu.data    580531199                       # number of demand (read+write) MSHR miss cycles
system.cpu.dcache.demand_mshr_miss_latency::total    580531199                       # number of demand (read+write) MSHR miss cycles
system.cpu.dcache.overall_mshr_miss_latency::.cpu.data    580531199                       # number of overall MSHR miss cycles
system.cpu.dcache.overall_mshr_miss_latency::.cpu.dcache.prefetcher    248617678                       # number of overall MSHR miss cycles
system.cpu.dcache.overall_mshr_miss_latency::total    829148877                       # number of overall MSHR miss cycles
system.cpu.dcache.demand_mshr_miss_rate::.cpu.data     0.014166                       # mshr miss rate for demand accesses
system.cpu.dcache.demand_mshr_miss_rate::total     0.014166                       # mshr miss rate for demand accesses
system.cpu.dcache.overall_mshr_miss_rate::.cpu.data     0.014166                       # mshr miss rate for overall accesses
system.cpu.dcache.overall_mshr_miss_rate::.cpu.dcache.prefetcher          inf                       # mshr miss rate for overall accesses
system.cpu.dcache.overall_mshr_miss_rate::total     0.019078                       # mshr miss rate for overall accesses
system.cpu.dcache.demand_avg_mshr_miss_latency::.cpu.data 45913.571575                       # average overall mshr miss latency
system.cpu.dcache.demand_avg_mshr_miss_latency::total 45913.571575                       # average overall mshr miss latency
system.cpu.dcache.overall_avg_mshr_miss_latency::.cpu.data 45913.571575                       # average overall mshr miss latency
system.cpu.dcache.overall_avg_mshr_miss_latency::.cpu.dcache.prefetcher 56710.236770                       # average overall mshr miss latency
system.cpu.dcache.overall_avg_mshr_miss_latency::total 48693.262685                       # average overall mshr miss latency
system.cpu.dcache.replacements                  16004                       # number of replacements
system.cpu.dcache.ReadReq_hits::.cpu.data       601791                       # number of ReadReq hits
system.cpu.dcache.ReadReq_hits::total          601791                       # number of ReadReq hits
system.cpu.dcache.ReadReq_misses::.cpu.data        32618                       # number of ReadReq misses
system.cpu.dcache.ReadReq_misses::total         32618                       # number of ReadReq misses
system.cpu.dcache.ReadReq_miss_latency::.cpu.data   1578904800                       # number of ReadReq miss cycles
system.cpu.dcache.ReadReq_miss_latency::total   1578904800                       # number of ReadReq miss cycles
system.cpu.dcache.ReadReq_accesses::.cpu.data       634409                       # number of ReadReq accesses(hits+misses)
system.cpu.dcache.ReadReq_accesses::total       634409                       # number of ReadReq accesses(hits+misses)
system.cpu.dcache.ReadReq_miss_rate::.cpu.data     0.051415                       # miss rate for ReadReq accesses
system.cpu.dcache.ReadReq_miss_rate::total     0.051415                       # miss rate for ReadReq accesses
system.cpu.dcache.ReadReq_avg_miss_latency::.cpu.data 48405.935373                       # average ReadReq miss latency
system.cpu.dcache.ReadReq_avg_miss_latency::total 48405.935373                       # average ReadReq miss latency
system.cpu.dcache.ReadReq_mshr_hits::.cpu.data        22095                       # number of ReadReq MSHR hits
system.cpu.dcache.ReadReq_mshr_hits::total        22095                       # number of ReadReq MSHR hits
system.cpu.dcache.ReadReq_mshr_misses::.cpu.data        10523                       # number of ReadReq MSHR misses
system.cpu.dcache.ReadReq_mshr_misses::total        10523                       # number of ReadReq MSHR misses
system.cpu.dcache.ReadReq_mshr_miss_latency::.cpu.data    477656000                       # number of ReadReq MSHR miss cycles
system.cpu.dcache.ReadReq_mshr_miss_latency::total    477656000                       # number of ReadReq MSHR miss cycles
system.cpu.dcache.ReadReq_mshr_miss_rate::.cpu.data     0.016587                       # mshr miss rate for ReadReq accesses
system.cpu.dcache.ReadReq_mshr_miss_rate::total     0.016587                       # mshr miss rate for ReadReq accesses
system.cpu.dcache.ReadReq_avg_mshr_miss_latency::.cpu.data 45391.618360                       # average ReadReq mshr miss latency
system.cpu.dcache.ReadReq_avg_mshr_miss_latency::total 45391.618360                       # average ReadReq mshr miss latency
system.cpu.dcache.WriteReq_hits::.cpu.data       255960                       # number of WriteReq hits
system.cpu.dcache.WriteReq_hits::total         255960                       # number of WriteReq hits
system.cpu.dcache.WriteReq_misses::.cpu.data         2163                       # number of WriteReq misses
system.cpu.dcache.WriteReq_misses::total         2163                       # number of WriteReq misses
system.cpu.dcache.WriteReq_miss_latency::.cpu.data    106013999                       # number of WriteReq miss cycles
system.cpu.dcache.WriteReq_miss_latency::total    106013999                       # number of WriteReq miss cycles
system.cpu.dcache.WriteReq_accesses::.cpu.data       258123                       # number of WriteReq accesses(hits+misses)
system.cpu.dcache.WriteReq_accesses::total       258123                       # number of WriteReq accesses(hits+misses)
system.cpu.dcache.WriteReq_miss_rate::.cpu.data     0.008380                       # miss rate for WriteReq accesses
system.cpu.dcache.WriteReq_miss_rate::total     0.008380                       # miss rate for WriteReq accesses
system.cpu.dcache.WriteReq_avg_miss_latency::.cpu.data 49012.482201                       # average WriteReq miss latency
system.cpu.dcache.WriteReq_avg_miss_latency::total 49012.482201                       # average WriteReq miss latency
system.cpu.dcache.WriteReq_mshr_hits::.cpu.data           42                       # number of WriteReq MSHR hits
system.cpu.dcache.WriteReq_mshr_hits::total           42                       # number of WriteReq MSHR hits
system.cpu.dcache.WriteReq_mshr_misses::.cpu.data         2121                       # number of WriteReq MSHR misses
system.cpu.dcache.WriteReq_mshr_misses::total         2121                       # number of WriteReq MSHR misses
system.cpu.dcache.WriteReq_mshr_miss_latency::.cpu.data    102875199                       # number of WriteReq MSHR miss cycles
[...]
system.l2cache.overall_mshr_miss_latency::total     23703551                       # number of overall MSHR miss cycles
system.l2cache.demand_mshr_miss_rate::.cpu.inst     0.521158                       # mshr miss rate for demand accesses
system.l2cache.demand_mshr_miss_rate::.cpu.data     0.502128                       # mshr miss rate for demand accesses
system.l2cache.demand_mshr_miss_rate::.cpu.dcache.prefetcher     0.734375                       # mshr miss rate for demand accesses
system.l2cache.demand_mshr_miss_rate::total     0.533422                       # mshr miss rate for demand accesses
system.l2cache.overall_mshr_miss_rate::.cpu.inst     0.521158                       # mshr miss rate for overall accesses
system.l2cache.overall_mshr_miss_rate::.cpu.data     0.502128                       # mshr miss rate for overall accesses
system.l2cache.overall_mshr_miss_rate::.cpu.dcache.prefetcher     0.734375                       # mshr miss rate for overall accesses
system.l2cache.overall_mshr_miss_rate::.l2cache.prefetcher          inf                       # mshr miss rate for overall accesses
system.l2cache.overall_mshr_miss_rate::total     0.537433                       # mshr miss rate for overall accesses
system.l2cache.demand_avg_mshr_miss_latency::.cpu.inst 58451.282051                       # average overall mshr miss latency
system.l2cache.demand_avg_mshr_miss_latency::.cpu.data 60145.762712                       # average overall mshr miss latency
system.l2cache.demand_avg_mshr_miss_latency::.cpu.dcache.prefetcher 58867.085106                       # average overall mshr miss latency
system.l2cache.demand_avg_mshr_miss_latency::total 59001.385965                       # average overall mshr miss latency
system.l2cache.overall_avg_mshr_miss_latency::.cpu.inst 58451.282051                       # average overall mshr miss latency
system.l2cache.overall_avg_mshr_miss_latency::.cpu.data 60145.762712                       # average overall mshr miss latency
system.l2cache.overall_avg_mshr_miss_latency::.cpu.dcache.prefetcher 58867.085106                       # average overall mshr miss latency
system.l2cache.overall_avg_mshr_miss_latency::.l2cache.prefetcher 53999.333333                       # average overall mshr miss latency
system.l2cache.overall_avg_mshr_miss_latency::total 58964.057214                       # average overall mshr miss latency
system.l2cache.replacements                       411                       # number of replacements
system.l2cache.WritebackDirty_hits::.writebacks           94                       # number of WritebackDirty hits
system.l2cache.WritebackDirty_hits::total           94                       # number of WritebackDirty hits
system.l2cache.WritebackDirty_accesses::.writebacks           94                       # number of WritebackDirty accesses(hits+misses)
system.l2cache.WritebackDirty_accesses::total           94                       # number of WritebackDirty accesses(hits+misses)
system.l2cache.CleanEvict_mshr_misses::.writebacks           13                       # number of CleanEvict MSHR misses
system.l2cache.CleanEvict_mshr_misses::total           13                       # number of CleanEvict MSHR misses
system.l2cache.CleanEvict_mshr_miss_rate::.writebacks          inf                       # mshr miss rate for CleanEvict accesses
system.l2cache.CleanEvict_mshr_miss_rate::total          inf                       # mshr miss rate for CleanEvict accesses
system.l2cache.HardPFReq_mshr_misses::.l2cache.prefetcher            3                       # number of HardPFReq MSHR misses
system.l2cache.HardPFReq_mshr_misses::total            3                       # number of HardPFReq MSHR misses
system.l2cache.HardPFReq_mshr_miss_latency::.l2cache.prefetcher       161998                       # number of HardPFReq MSHR miss cycles
system.l2cache.HardPFReq_mshr_miss_latency::total       161998                       # number of HardPFReq MSHR miss cycles
system.l2cache.HardPFReq_mshr_miss_rate::.l2cache.prefetcher          inf                       # mshr miss rate for HardPFReq accesses
system.l2cache.HardPFReq_mshr_miss_rate::total          inf                       # mshr miss rate for HardPFReq accesses
system.l2cache.HardPFReq_avg_mshr_miss_latency::.l2cache.prefetcher 53999.333333                       # average HardPFReq mshr miss latency
system.l2cache.HardPFReq_avg_mshr_miss_latency::total 53999.333333                       # average HardPFReq mshr miss latency
system.l2cache.ReadExReq_hits::.cpu.data            2                       # number of ReadExReq hits
system.l2cache.ReadExReq_hits::total                2                       # number of ReadExReq hits
system.l2cache.ReadExReq_misses::.cpu.data            7                       # number of ReadExReq misses
system.l2cache.ReadExReq_misses::total              7                       # number of ReadExReq misses
system.l2cache.ReadExReq_miss_latency::.cpu.data       441200                       # number of ReadExReq miss cycles
system.l2cache.ReadExReq_miss_latency::total       441200                       # number of ReadExReq miss cycles
system.l2cache.ReadExReq_accesses::.cpu.data            9                       # number of ReadExReq accesses(hits+misses)
system.l2cache.ReadExReq_accesses::total            9                       # number of ReadExReq accesses(hits+misses)
system.l2cache.ReadExReq_miss_rate::.cpu.data     0.777778                       # miss rate for ReadExReq accesses
system.l2cache.ReadExReq_miss_rate::total     0.777778                       # miss rate for ReadExReq accesses
system.l2cache.ReadExReq_avg_miss_latency::.cpu.data 63028.571429                       # average ReadExReq miss latency
system.l2cache.ReadExReq_avg_miss_latency::total 63028.571429                       # average ReadExReq miss latency
system.l2cache.ReadExReq_mshr_misses::.cpu.data            7                       # number of ReadExReq MSHR misses
system.l2cache.ReadExReq_mshr_misses::total            7                       # number of ReadExReq MSHR misses
system.l2cache.ReadExReq_mshr_miss_latency::.cpu.data       385200                       # number of ReadExReq MSHR miss cycles
system.l2cache.ReadExReq_mshr_miss_latency::total       385200                       # number of ReadExReq MSHR miss cycles
system.l2cache.ReadExReq_mshr_miss_rate::.cpu.data     0.777778                       # mshr miss rate for ReadExReq accesses
system.l2cache.ReadExReq_mshr_miss_rate::total     0.777778                       # mshr miss rate for ReadExReq accesses
system.l2cache.ReadExReq_avg_mshr_miss_latency::.cpu.data 55028.571429                       # average ReadExReq mshr miss latency
system.l2cache.ReadExReq_avg_mshr_miss_latency::total 55028.571429                       # average ReadExReq mshr miss latency
system.l2cache.ReadSharedReq_hits::.cpu.inst          215                       # number of ReadSharedReq hits
system.l2cache.ReadSharedReq_hits::.cpu.data          115                       # number of ReadSharedReq hits
system.l2cache.ReadSharedReq_hits::.cpu.dcache.prefetcher           17                       # number of ReadSharedReq hits
system.l2cache.ReadSharedReq_hits::total          347                       # number of ReadSharedReq hits
system.l2cache.ReadSharedReq_misses::.cpu.inst          234                       # number of ReadSharedReq misses
system.l2cache.ReadSharedReq_misses::.cpu.data          111                       # number of ReadSharedReq misses
system.l2cache.ReadSharedReq_misses::.cpu.dcache.prefetcher           47                       # number of ReadSharedReq misses
system.l2cache.ReadSharedReq_misses::total          392                       # number of ReadSharedReq misses
system.l2cache.ReadSharedReq_miss_latency::.cpu.inst     15549600                       # number of ReadSharedReq miss cycles
system.l2cache.ReadSharedReq_miss_latency::.cpu.data      7600000                       # number of ReadSharedReq miss cycles
system.l2cache.ReadSharedReq_miss_latency::.cpu.dcache.prefetcher      3142753                       # number of ReadSharedReq miss cycles
system.l2cache.ReadSharedReq_miss_latency::total     26292353                       # number of ReadSharedReq miss cycles
system.l2cache.ReadSharedReq_accesses::.cpu.inst          449                       # number of ReadSharedReq accesses(hits+misses)
system.l2cache.ReadSharedReq_accesses::.cpu.data          226                       # number of ReadSharedReq accesses(hits+misses)
system.l2cache.ReadSharedReq_accesses::.cpu.dcache.prefetcher           64                       # number of ReadSharedReq accesses(hits+misses)
system.l2cache.ReadSharedReq_accesses::total          739                       # number of ReadSharedReq accesses(hits+misses)
system.l2cache.ReadSharedReq_miss_rate::.cpu.inst     0.521158                       # miss rate for ReadSharedReq accesses
system.l2cache.ReadSharedReq_miss_rate::.cpu.data     0.491150                       # miss rate for ReadSharedReq accesses
system.l2cache.ReadSharedReq_miss_rate::.cpu.dcache.prefetcher     0.734375                       # miss rate for ReadSharedReq accesses
system.l2cache.ReadSharedReq_miss_rate::total     0.530447                       # miss rate for ReadSharedReq accesses
system.l2cache.ReadSharedReq_avg_miss_latency::.cpu.inst 66451.282051                       # average ReadSharedReq miss latency
system.l2cache.ReadSharedReq_avg_miss_latency::.cpu.data 68468.468468                       # average ReadSharedReq miss latency
system.l2cache.ReadSharedReq_avg_miss_latency::.cpu.dcache.prefetcher 66867.085106                       # average ReadSharedReq miss latency
system.l2cache.ReadSharedReq_avg_miss_latency::total 67072.329082                       # average ReadSharedReq miss latency
system.l2cache.ReadSharedReq_mshr_misses::.cpu.inst          234                       # number of ReadSharedReq MSHR misses
system.l2cache.ReadSharedReq_mshr_misses::.cpu.data          111                       # number of ReadSharedReq MSHR misses
system.l2cache.ReadSharedReq_mshr_misses::.cpu.dcache.prefetcher           47                       # number of ReadSharedReq MSHR misses
system.l2cache.ReadSharedReq_mshr_misses::total          392                       # number of ReadSharedReq MSHR misses
system.l2cache.ReadSharedReq_mshr_miss_latency::.cpu.inst     13677600                       # number of ReadSharedReq MSHR miss cycles
system.l2cache.ReadSharedReq_mshr_miss_latency::.cpu.data      6712000                       # number of ReadSharedReq MSHR miss cycles
system.l2cache.ReadSharedReq_mshr_miss_latency::.cpu.dcache.prefetcher      2766753                       # number of ReadSharedReq MSHR miss cycles
system.l2cache.ReadSharedReq_mshr_miss_latency::total     23156353                       # number of ReadSharedReq MSHR miss cycles
system.l2cache.ReadSharedReq_mshr_miss_rate::.cpu.inst     0.521158                       # mshr miss rate for ReadSharedReq accesses
system.l2cache.ReadSharedReq_mshr_miss_rate::.cpu.data     0.491150                       # mshr miss rate for ReadSharedReq accesses
system.l2cache.ReadSharedReq_mshr_miss_rate::.cpu.dcache.prefetcher     0.734375                       # mshr miss rate for ReadSharedReq accesses
system.l2cache.ReadSharedReq_mshr_miss_rate::total     0.530447                       # mshr miss rate for ReadSharedReq accesses
system.l2cache.ReadSharedReq_avg_mshr_miss_latency::.cpu.inst 58451.282051                       # average ReadSharedReq mshr miss latency
system.l2cache.ReadSharedReq_avg_mshr_miss_latency::.cpu.data 60468.468468                       # average ReadSharedReq mshr miss latency
system.l2cache.ReadSharedReq_avg_mshr_miss_latency::.cpu.dcache.prefetcher 58867.085106                       # average ReadSharedReq mshr miss latency
system.l2cache.ReadSharedReq_avg_mshr_miss_latency::total 59072.329082                       # average ReadSharedReq mshr miss latency
system.l2cache.prefetcher.pwrStateResidencyTicks::UNDEFINED     28543600                       # Cumulative time (in ticks) in various power states
system.l2cache.tags.pwrStateResidencyTicks::UNDEFINED     28543600                       # Cumulative time (in ticks) in various power states
system.l2cache.tags.tagsinuse                    4096                       # Cycle average of tags in use
system.l2cache.tags.total_refs                  14133                       # Total number of references to valid blocks.
system.l2cache.tags.sampled_refs                 4507                       # Sample count of references to valid blocks.
system.l2cache.tags.avg_refs                 3.135789                       # Average number of references to valid blocks.
system.l2cache.tags.warmup_cycle                    0                       # Cycle when the warmup percentage was hit.
system.l2cache.tags.occ_blocks::.writebacks    43.786558                       # Average occupied blocks per requestor
system.l2cache.tags.occ_blocks::.cpu.inst  1137.578852                       # Average occupied blocks per requestor
system.l2cache.tags.occ_blocks::.cpu.data  1828.225800                       # Average occupied blocks per requestor
system.l2cache.tags.occ_blocks::.cpu.dcache.prefetcher   942.899857                       # Average occupied blocks per requestor
system.l2cache.tags.occ_blocks::.l2cache.prefetcher   143.508934                       # Average occupied blocks per requestor
system.l2cache.tags.occ_percent::.writebacks     0.010690                       # Average percentage of cache occupancy
system.l2cache.tags.occ_percent::.cpu.inst     0.277729                       # Average percentage of cache occupancy
system.l2cache.tags.occ_percent::.cpu.data     0.446344                       # Average percentage of cache occupancy
system.l2cache.tags.occ_percent::.cpu.dcache.prefetcher     0.230200                       # Average percentage of cache occupancy
system.l2cache.tags.occ_percent::.l2cache.prefetcher     0.035036                       # Average percentage of cache occupancy
system.l2cache.tags.occ_percent::total              1                       # Average percentage of cache occupancy
system.l2cache.tags.occ_task_id_blocks::1022         1037                       # Occupied blocks per task id
system.l2cache.tags.occ_task_id_blocks::1024         3059                       # Occupied blocks per task id
system.l2cache.tags.age_task_id_blocks_1022::0           14                       # Occupied blocks per task id
system.l2cache.tags.age_task_id_blocks_1022::1           61                       # Occupied blocks per task id
system.l2cache.tags.age_task_id_blocks_1022::2          934                       # Occupied blocks per task id
system.l2cache.tags.age_task_id_blocks_1022::3           28                       # Occupied blocks per task id
system.l2cache.tags.age_task_id_blocks_1024::0          173                       # Occupied blocks per task id
system.l2cache.tags.age_task_id_blocks_1024::1          345                       # Occupied blocks per task id
system.l2cache.tags.age_task_id_blocks_1024::2         2389                       # Occupied blocks per task id
system.l2cache.tags.age_task_id_blocks_1024::3          152                       # Occupied blocks per task id
system.l2cache.tags.occ_task_id_percent::1022     0.253174                       # Percentage of cache occupancy per task id
system.l2cache.tags.occ_task_id_percent::1024     0.746826                       # Percentage of cache occupancy per task id
system.l2cache.tags.tag_accesses                12371                       # Number of tag accesses
system.l2cache.tags.data_accesses               12371                       # Number of data accesses
system.mem_ctrl.pwrStateResidencyTicks::UNDEFINED     28543600                       # Cumulative time (in ticks) in various power states
system.mem_ctrl.bytes_read::.cpu.inst           14976                       # Number of bytes read from this memory
system.mem_ctrl.bytes_read::.cpu.data            7552                       # Number of bytes read from this memory
system.mem_ctrl.bytes_read::.cpu.dcache.prefetcher         3008                       # Number of bytes read from this memory
system.mem_ctrl.bytes_read::.l2cache.prefetcher          192                       # Number of bytes read from this memory
system.mem_ctrl.bytes_read::total               25728                       # Number of bytes read from this memory
system.mem_ctrl.bytes_inst_read::.cpu.inst        14976                       # Number of instructions bytes read from this memory
system.mem_ctrl.bytes_inst_read::total          14976                       # Number of instructions bytes read from this memory
system.mem_ctrl.bytes_written::.writebacks         1536                       # Number of bytes written to this memory
system.mem_ctrl.bytes_written::total             1536                       # Number of bytes written to this memory
system.mem_ctrl.num_reads::.cpu.inst              234                       # Number of read requests responded to by this memory
system.mem_ctrl.num_reads::.cpu.data              118                       # Number of read requests responded to by this memory
system.mem_ctrl.num_reads::.cpu.dcache.prefetcher           47                       # Number of read requests responded to by this memory
system.mem_ctrl.num_reads::.l2cache.prefetcher            3                       # Number of read requests responded to by this memory
system.mem_ctrl.num_reads::total                  402                       # Number of read requests responded to by this memory
system.mem_ctrl.num_writes::.writebacks            24                       # Number of write requests responded to by this memory
system.mem_ctrl.num_writes::total                  24                       # Number of write requests responded to by this memory
system.mem_ctrl.bw_read::.cpu.inst          524671030                       # Total read bandwidth from this memory (bytes/s)
system.mem_ctrl.bw_read::.cpu.data          264577699                       # Total read bandwidth from this memory (bytes/s)
system.mem_ctrl.bw_read::.cpu.dcache.prefetcher    105382643                       # Total read bandwidth from this memory (bytes/s)
system.mem_ctrl.bw_read::.l2cache.prefetcher      6726552                       # Total read bandwidth from this memory (bytes/s)
system.mem_ctrl.bw_read::total              901357923                       # Total read bandwidth from this memory (bytes/s)
system.mem_ctrl.bw_inst_read::.cpu.inst     524671030                       # Instruction read bandwidth from this memory (bytes/s)
system.mem_ctrl.bw_inst_read::total         524671030                       # Instruction read bandwidth from this memory (bytes/s)
system.mem_ctrl.bw_write::.writebacks        53812413                       # Write bandwidth from this memory (bytes/s)
system.mem_ctrl.bw_write::total              53812413                       # Write bandwidth from this memory (bytes/s)
system.mem_ctrl.bw_total::.writebacks        53812413                       # Total bandwidth to/from this memory (bytes/s)
system.mem_ctrl.bw_total::.cpu.inst         524671030                       # Total bandwidth to/from this memory (bytes/s)
system.mem_ctrl.bw_total::.cpu.data         264577699                       # Total bandwidth to/from this memory (bytes/s)
system.mem_ctrl.bw_total::.cpu.dcache.prefetcher    105382643                       # Total bandwidth to/from this memory (bytes/s)
system.mem_ctrl.bw_total::.l2cache.prefetcher      6726552                       # Total bandwidth to/from this memory (bytes/s)
system.mem_ctrl.bw_total::total             955170336                       # Total bandwidth to/from this memory (bytes/s)

---------- End Simulation Statistics   ----------
