
---------- Begin Simulation Statistics ----------
final_tick                                 1105937200                       # Number of ticks from beginning of simulation (restored from checkpoints and never reset)
host_inst_rate                                 185365                       # Simulator instruction rate (inst/s)
host_mem_usage                                4406844                       # Number of bytes of host memory used
host_op_rate                                   323883                       # Simulator op (including micro ops) rate (op/s)
host_seconds                                    11.36                       # Real time elapsed on the host
host_tick_rate                               97366285                       # Simulator tick rate (ticks/s)
sim_freq                                 1000000000000                       # Frequency of simulated ticks
sim_insts                                     2105453                       # Number of instructions simulated
sim_ops                                       3678832                       # Number of ops (including micro ops) simulated
sim_seconds                                  0.001106                       # Number of seconds simulated
sim_ticks                                  1105937200                       # Number of ticks simulated
system.cpu.branchPred.BTBCorrect                    0                       # Number of correct BTB predictions (this stat may not work properly.
system.cpu.branchPred.BTBHitPct              0.000000                       # BTB Hit Percentage
system.cpu.branchPred.BTBHits                       0                       # Number of BTB hits
system.cpu.branchPred.BTBLookups               438665                       # Number of BTB lookups
system.cpu.branchPred.RASInCorrect                  8                       # Number of incorrect RAS predictions.
system.cpu.branchPred.condIncorrect             24259                       # Number of conditional branches incorrect
system.cpu.branchPred.condPredicted            469923                       # Number of conditional branches predicted
system.cpu.branchPred.indirectHits             240477                       # Number of indirect target hits.
system.cpu.branchPred.indirectLookups          438665                       # Number of indirect predictor lookups.
system.cpu.branchPred.indirectMisses           198188                       # Number of indirect misses.
system.cpu.branchPred.lookups                  497320                       # Number of BP lookups
system.cpu.branchPred.usedRAS                   11903                       # Number of times the RAS was used to get a target.
system.cpu.branchPredindirectMispredicted        12209                       # Number of mispredicted indirect branches.
system.cpu.cc_regfile_reads                   2416319                       # number of cc regfile reads
system.cpu.cc_regfile_writes                  1957550                       # number of cc regfile writes
system.cpu.commit.amos                              0                       # Number of atomic instructions committed
system.cpu.commit.branchMispredicts             24375                       # The number of times a branch was mispredicted
system.cpu.commit.branches                     352625                       # Number of branches committed
system.cpu.commit.bw_lim_events                612170                       # number cycles where commit BW limit reached
system.cpu.commit.commitNonSpecStalls             760                       # The number of times commit has been forced to stall to communicate backwards
system.cpu.commit.commitSquashedInsts          890614                       # The number of squashed insts skipped by commit
system.cpu.commit.committedInsts              2105453                       # Number of instructions committed
system.cpu.commit.committedOps                3678832                       # Number of ops (including micro ops) committed
system.cpu.commit.committed_per_cycle::samples      2357241                       # Number of insts commited each cycle
system.cpu.commit.committed_per_cycle::mean     1.560652                       # Number of insts commited each cycle
system.cpu.commit.committed_per_cycle::stdev     1.726961                       # Number of insts commited each cycle
system.cpu.commit.committed_per_cycle::underflows            0      0.00%      0.00% # Number of insts commited each cycle
system.cpu.commit.committed_per_cycle::0      1155561     49.02%     49.02% # Number of insts commited each cycle
system.cpu.commit.committed_per_cycle::1       181589      7.70%     56.73% # Number of insts commited each cycle
system.cpu.commit.committed_per_cycle::2       175200      7.43%     64.16% # Number of insts commited each cycle
system.cpu.commit.committed_per_cycle::3       232721      9.87%     74.03% # Number of insts commited each cycle
system.cpu.commit.committed_per_cycle::4       612170     25.97%    100.00% # Number of insts commited each cycle
system.cpu.commit.committed_per_cycle::overflows            0      0.00%    100.00% # Number of insts commited each cycle
system.cpu.commit.committed_per_cycle::min_value            0                       # Number of insts commited each cycle
system.cpu.commit.committed_per_cycle::max_value            4                       # Number of insts commited each cycle
system.cpu.commit.committed_per_cycle::total      2357241                       # Number of insts commited each cycle
system.cpu.commit.fp_insts                      80895                       # Number of committed floating point instructions.
system.cpu.commit.function_calls                10087                       # Number of function calls committed.
system.cpu.commit.int_insts                   3618183                       # Number of committed integer instructions.
system.cpu.commit.loads                        502984                       # Number of loads committed
system.cpu.commit.membars                           1                       # Number of memory barriers committed
system.cpu.commit.op_class_0::No_OpClass        21033      0.57%      0.57% # Class of committed instruction
system.cpu.commit.op_class_0::IntAlu          2888219     78.51%     79.08% # Class of committed instruction
system.cpu.commit.op_class_0::IntMult            1564      0.04%     79.12% # Class of committed instruction
system.cpu.commit.op_class_0::IntDiv            37658      1.02%     80.15% # Class of committed instruction
system.cpu.commit.op_class_0::FloatAdd           3149      0.09%     80.23% # Class of committed instruction
system.cpu.commit.op_class_0::FloatCmp              0      0.00%     80.23% # Class of committed instruction
system.cpu.commit.op_class_0::FloatCvt           1248      0.03%     80.27% # Class of committed instruction
system.cpu.commit.op_class_0::FloatMult             0      0.00%     80.27% # Class of committed instruction
system.cpu.commit.op_class_0::FloatMultAcc            0      0.00%     80.27% # Class of committed instruction
system.cpu.commit.op_class_0::FloatDiv              0      0.00%     80.27% # Class of committed instruction
system.cpu.commit.op_class_0::FloatMisc             0      0.00%     80.27% # Class of committed instruction
system.cpu.commit.op_class_0::FloatSqrt             0      0.00%     80.27% # Class of committed instruction
system.cpu.commit.op_class_0::SimdAdd            6270      0.17%     80.44% # Class of committed instruction
system.cpu.commit.op_class_0::SimdAddAcc            0      0.00%     80.44% # Class of committed instruction
system.cpu.commit.op_class_0::SimdAlu           12388      0.34%     80.77% # Class of committed instruction
system.cpu.commit.op_class_0::SimdCmp               0      0.00%     80.77% # Class of committed instruction
system.cpu.commit.op_class_0::SimdCvt           13278      0.36%     81.13% # Class of committed instruction
system.cpu.commit.op_class_0::SimdMisc           8963      0.24%     81.38% # Class of committed instruction
system.cpu.commit.op_class_0::SimdMult              0      0.00%     81.38% # Class of committed instruction
system.cpu.commit.op_class_0::SimdMultAcc            0      0.00%     81.38% # Class of committed instruction
system.cpu.commit.op_class_0::SimdShift          1316      0.04%     81.41% # Class of committed instruction
system.cpu.commit.op_class_0::SimdShiftAcc            0      0.00%     81.41% # Class of committed instruction
system.cpu.commit.op_class_0::SimdDiv               0      0.00%     81.41% # Class of committed instruction
system.cpu.commit.op_class_0::SimdSqrt              0      0.00%     81.41% # Class of committed instruction
system.cpu.commit.op_class_0::SimdFloatAdd            0      0.00%     81.41% # Class of committed instruction
system.cpu.commit.op_class_0::SimdFloatAlu            0      0.00%     81.41% # Class of committed instruction
system.cpu.commit.op_class_0::SimdFloatCmp            0      0.00%     81.41% # Class of committed instruction
system.cpu.commit.op_class_0::SimdFloatCvt            0      0.00%     81.41% # Class of committed instruction
system.cpu.commit.op_class_0::SimdFloatDiv            0      0.00%     81.41% # Class of committed instruction
system.cpu.commit.op_class_0::SimdFloatMisc            0      0.00%     81.41% # Class of committed instruction
system.cpu.commit.op_class_0::SimdFloatMult            0      0.00%     81.41% # Class of committed instruction
system.cpu.commit.op_class_0::SimdFloatMultAcc            0      0.00%     81.41% # Class of committed instruction
system.cpu.commit.op_class_0::SimdFloatSqrt            0      0.00%     81.41% # Class of committed instruction
system.cpu.commit.op_class_0::SimdReduceAdd            0      0.00%     81.41% # Class of committed instruction
system.cpu.commit.op_class_0::SimdReduceAlu            0      0.00%     81.41% # Class of committed instruction
system.cpu.commit.op_class_0::SimdReduceCmp            0      0.00%     81.41% # Class of committed instruction
system.cpu.commit.op_class_0::SimdFloatReduceAdd            0      0.00%     81.41% # Class of committed instruction
system.cpu.commit.op_class_0::SimdFloatReduceCmp            0      0.00%     81.41% # Class of committed instruction
system.cpu.commit.op_class_0::SimdAes               0      0.00%     81.41% # Class of committed instruction
system.cpu.commit.op_class_0::SimdAesMix            0      0.00%     81.41% # Class of committed instruction
system.cpu.commit.op_class_0::SimdSha1Hash            0      0.00%     81.41% # Class of committed instruction
system.cpu.commit.op_class_0::SimdSha1Hash2            0      0.00%     81.41% # Class of committed instruction
system.cpu.commit.op_class_0::SimdSha256Hash            0      0.00%     81.41% # Class of committed instruction
system.cpu.commit.op_class_0::SimdSha256Hash2            0      0.00%     81.41% # Class of committed instruction
system.cpu.commit.op_class_0::SimdShaSigma2            0      0.00%     81.41% # Class of committed instruction
system.cpu.commit.op_class_0::SimdShaSigma3            0      0.00%     81.41% # Class of committed instruction
system.cpu.commit.op_class_0::SimdPredAlu            0      0.00%     81.41% # Class of committed instruction
system.cpu.commit.op_class_0::MemRead          482834     13.12%     94.54% # Class of committed instruction
system.cpu.commit.op_class_0::MemWrite         168271      4.57%     99.11% # Class of committed instruction
system.cpu.commit.op_class_0::FloatMemRead        20150      0.55%     99.66% # Class of committed instruction
system.cpu.commit.op_class_0::FloatMemWrite        12491      0.34%    100.00% # Class of committed instruction
system.cpu.commit.op_class_0::IprAccess             0      0.00%    100.00% # Class of committed instruction
system.cpu.commit.op_class_0::InstPrefetch            0      0.00%    100.00% # Class of committed instruction
system.cpu.commit.op_class_0::total           3678832                       # Class of committed instruction
system.cpu.commit.refs                         683746                       # Number of memory references committed
system.cpu.commit.swp_count                         0                       # Number of s/w prefetches committed
system.cpu.commit.vec_insts                         0                       # Number of committed Vector instructions.
system.cpu.committedInsts                     2105453                       # Number of Instructions Simulated
system.cpu.committedOps                       3678832                       # Number of Ops (including micro ops) Simulated
system.cpu.cpi                               1.313182                       # CPI: Cycles Per Instruction
system.cpu.cpi_total                         1.313182                       # CPI: Total CPI of All Threads
system.cpu.dcache.prefetcher.num_hwpf_issued         8030                       # number of hwpf issued
system.cpu.dcache.prefetcher.pfBufferHit        33755                       # number of redundant prefetches already in prefetch queue
system.cpu.dcache.prefetcher.pfIdentified        48764                       # number of prefetch candidates identified
system.cpu.dcache.prefetcher.pfInCache              0                       # number of redundant prefetches already in cache/mshr dropped
system.cpu.dcache.prefetcher.pfRemovedFull            0                       # number of prefetches dropped due to prefetch queue size
system.cpu.dcache.prefetcher.pfSpanPage          4508                       # number of prefetches that crossed the page
system.cpu.decode.BlockedCycles               1020576                       # Number of cycles decode is blocked
system.cpu.decode.DecodedInsts                4786249                       # Number of instructions handled by decode
system.cpu.decode.IdleCycles                   301895                       # Number of cycles decode is idle
system.cpu.decode.RunCycles                   1164301                       # Number of cycles decode is running
system.cpu.decode.SquashCycles                  24440                       # Number of cycles decode is squashing
system.cpu.decode.UnblockCycles                 88959                       # Number of cycles decode is unblocking
system.cpu.dtb.rdAccesses                      586532                       # TLB accesses on read requests
system.cpu.dtb.rdMisses                          2042                       # TLB misses on read requests
system.cpu.dtb.wrAccesses                      200118                       # TLB accesses on write requests
system.cpu.dtb.wrMisses                           153                       # TLB misses on write requests
system.cpu.fetch.Branches                      497320                       # Number of branches that fetch encountered
system.cpu.fetch.CacheLines                    246441                       # Number of cache lines fetched
system.cpu.fetch.Cycles                       2237196                       # Number of cycles fetch has run and was not squashing or blocked
system.cpu.fetch.IcacheSquashes                  4663                       # Number of outstanding Icache misses that were squashed
system.cpu.fetch.Insts                        2875937                       # Number of instructions fetch has processed
system.cpu.fetch.MiscStallCycles                  143                       # Number of cycles fetch has spent waiting on interrupts, or bad addresses, or out of MSHRs
system.cpu.fetch.PendingQuiesceStallCycles            6                       # Number of stall cycles due to pending quiesce instructions
system.cpu.fetch.PendingTrapStallCycles           775                       # Number of stall cycles due to pending traps
system.cpu.fetch.SquashCycles                   48880                       # Number of cycles fetch has spent squashing
system.cpu.fetch.branchRate                  0.179873                       # Number of branch fetches per cycle
system.cpu.fetch.icacheStallCycles             337611                       # Number of cycles fetch is stalled on an Icache miss
system.cpu.fetch.predictedBranches             252380                       # Number of branches that fetch has predicted taken
system.cpu.fetch.rate                        1.040181                       # Number of inst fetches per cycle
system.cpu.fetch.rateDist::samples            2600171                       # Number of instructions fetched each cycle (Total)
system.cpu.fetch.rateDist::mean              1.947533                       # Number of instructions fetched each cycle (Total)
system.cpu.fetch.rateDist::stdev             1.930772                       # Number of instructions fetched each cycle (Total)
system.cpu.fetch.rateDist::underflows               0      0.00%      0.00% # Number of instructions fetched each cycle (Total)
system.cpu.fetch.rateDist::0                  1228250     47.24%     47.24% # Number of instructions fetched each cycle (Total)
system.cpu.fetch.rateDist::1                    74876      2.88%     50.12% # Number of instructions fetched each cycle (Total)
system.cpu.fetch.rateDist::2                    60816      2.34%     52.46% # Number of instructions fetched each cycle (Total)
system.cpu.fetch.rateDist::3                    77504      2.98%     55.44% # Number of instructions fetched each cycle (Total)
system.cpu.fetch.rateDist::4                  1158725     44.56%    100.00% # Number of instructions fetched each cycle (Total)
system.cpu.fetch.rateDist::overflows                0      0.00%    100.00% # Number of instructions fetched each cycle (Total)
system.cpu.fetch.rateDist::min_value                0                       # Number of instructions fetched each cycle (Total)
system.cpu.fetch.rateDist::max_value                4                       # Number of instructions fetched each cycle (Total)
system.cpu.fetch.rateDist::total              2600171                       # Number of instructions fetched each cycle (Total)
system.cpu.fp_regfile_reads                    134680                       # number of floating regfile reads
system.cpu.fp_regfile_writes                    73945                       # number of floating regfile writes
system.cpu.fuPool.fu_ticks_busy::IntALU(0)    221288400                       # Total ticks fu was busy
system.cpu.fuPool.fu_ticks_busy::IntALU(1)    221288400                       # Total ticks fu was busy
system.cpu.fuPool.fu_ticks_busy::IntALU(2)    221288400                       # Total ticks fu was busy
system.cpu.fuPool.fu_ticks_busy::IntALU(3)    221288400                       # Total ticks fu was busy
system.cpu.fuPool.fu_ticks_busy::IntALU(4)    221288400                       # Total ticks fu was busy
system.cpu.fuPool.fu_ticks_busy::IntALU(5)    221288400                       # Total ticks fu was busy
system.cpu.fuPool.fu_ticks_busy::IntMultDiv(0)      8607600                       # Total ticks fu was busy
system.cpu.fuPool.fu_ticks_busy::IntMultDiv(1)      8607200                       # Total ticks fu was busy
system.cpu.fuPool.fu_ticks_busy::FP_ALU(0)       611600                       # Total ticks fu was busy
system.cpu.fuPool.fu_ticks_busy::FP_ALU(1)       611600                       # Total ticks fu was busy
system.cpu.fuPool.fu_ticks_busy::FP_ALU(2)       611600                       # Total ticks fu was busy
system.cpu.fuPool.fu_ticks_busy::FP_ALU(3)       611600                       # Total ticks fu was busy
system.cpu.fuPool.fu_ticks_busy::FP_MultDiv(0)            0                       # Total ticks fu was busy
system.cpu.fuPool.fu_ticks_busy::FP_MultDiv(1)            0                       # Total ticks fu was busy
system.cpu.fuPool.fu_ticks_busy::SIMD_Unit(0)      5139200                       # Total ticks fu was busy
system.cpu.fuPool.fu_ticks_busy::SIMD_Unit(1)      5124400                       # Total ticks fu was busy
system.cpu.fuPool.fu_ticks_busy::SIMD_Unit(2)      5042800                       # Total ticks fu was busy
system.cpu.fuPool.fu_ticks_busy::SIMD_Unit(3)      5062400                       # Total ticks fu was busy
system.cpu.fuPool.fu_ticks_busy::PredALU(0)            0                       # Total ticks fu was busy
system.cpu.fuPool.fu_ticks_busy::RdWrPort(0)     80140800                       # Total ticks fu was busy
system.cpu.fuPool.fu_ticks_busy::RdWrPort(1)     80100800                       # Total ticks fu was busy
system.cpu.fuPool.fu_ticks_busy::RdWrPort(2)     80158800                       # Total ticks fu was busy
system.cpu.fuPool.fu_ticks_busy::RdWrPort(3)     80170400                       # Total ticks fu was busy
system.cpu.fuPool.fu_ticks_busy::IprPort(0)            0                       # Total ticks fu was busy
system.cpu.fuPool.fu_ticks_busy::total     1688331200                       # Total ticks fu was busy
system.cpu.icache.prefetcher.num_hwpf_issued            0                       # number of hwpf issued
system.cpu.icache.prefetcher.pfBufferHit            0                       # number of redundant prefetches already in prefetch queue
system.cpu.icache.prefetcher.pfIdentified            0                       # number of prefetch candidates identified
system.cpu.icache.prefetcher.pfInCache              0                       # number of redundant prefetches already in cache/mshr dropped
system.cpu.icache.prefetcher.pfRemovedFull            0                       # number of prefetches dropped due to prefetch queue size
system.cpu.icache.prefetcher.pfSpanPage             0                       # number of prefetches that crossed the page
system.cpu.idleCycles                          164673                       # Total number of cycles that the CPU has spent unscheduled due to idling
system.cpu.iew.branchMispredicts                28785                       # Number of branch mispredicts detected at execute
system.cpu.iew.exec_branches                   382865                       # Number of branches executed
system.cpu.iew.exec_nop                             0                       # number of nop insts executed
system.cpu.iew.exec_rate                     1.524048                       # Inst execution rate
system.cpu.iew.exec_refs                       788403                       # number of memory reference insts executed
system.cpu.iew.exec_stores                     200104                       # Number of stores executed
system.cpu.iew.exec_swp                             0                       # number of swp insts executed
system.cpu.iew.iewBlockCycles                  691095                       # Number of cycles IEW is blocking
system.cpu.iew.iewDispLoadInsts                618981                       # Number of dispatched load instructions
system.cpu.iew.iewDispNonSpecInsts                967                       # Number of dispatched non-speculative instructions
system.cpu.iew.iewDispSquashedInsts               586                       # Number of squashed instructions skipped by dispatch
system.cpu.iew.iewDispStoreInsts               210427                       # Number of dispatched store instructions
system.cpu.iew.iewDispatchedInsts             4569408                       # Number of instructions dispatched to IQ
system.cpu.iew.iewExecLoadInsts                588299                       # Number of load instructions executed
system.cpu.iew.iewExecSquashedInsts             34576                       # Number of squashed instructions skipped in execute
system.cpu.iew.iewExecutedInsts               4213756                       # Number of executed instructions
system.cpu.iew.iewIQFullEvents                   3335                       # Number of times the IQ has become full, causing a stall
system.cpu.iew.iewIdleCycles                        0                       # Number of cycles IEW is idle
system.cpu.iew.iewLSQFullEvents                  8206                       # Number of times the LSQ has become full, causing a stall
system.cpu.iew.iewSquashCycles                  24440                       # Number of cycles IEW is squashing
system.cpu.iew.iewUnblockCycles                 14525                       # Number of cycles IEW is unblocking
system.cpu.iew.lsq.thread0.blockedLoads             0                       # Number of blocked loads due to partial load-store forwarding
system.cpu.iew.lsq.thread0.cacheBlocked           634                       # Number of times an access to memory failed due to the cache being blocked
system.cpu.iew.lsq.thread0.forwLoads            40883                       # Number of loads that had data forwarded from stores
system.cpu.iew.lsq.thread0.ignoredResponses          221                       # Number of memory responses ignored because the instruction is squashed
system.cpu.iew.lsq.thread0.invAddrLoads             0                       # Number of loads ignored due to an invalid address
system.cpu.iew.lsq.thread0.invAddrSwpfs             0                       # Number of software prefetches ignored due to an invalid address
system.cpu.iew.lsq.thread0.memOrderViolation           80                       # Number of memory ordering violations
system.cpu.iew.lsq.thread0.rescheduledLoads            2                       # Number of loads that were rescheduled
system.cpu.iew.lsq.thread0.squashedLoads       115995                       # Number of loads squashed
system.cpu.iew.lsq.thread0.squashedStores        29664                       # Number of stores squashed
system.cpu.iew.memOrderViolationEvents             80                       # Number of memory order violations
system.cpu.iew.predictedNotTakenIncorrect        20776                       # Number of branches that were predicted not taken incorrectly
system.cpu.iew.predictedTakenIncorrect           8009                       # Number of branches that were predicted taken incorrectly
system.cpu.iew.wb_consumers                   5887193                       # num instructions consuming a value
system.cpu.iew.wb_count                       4191619                       # cumulative count of insts written-back
system.cpu.iew.wb_fanout                     0.567626                       # average fanout of values written-back
system.cpu.iew.wb_producers                   3341722                       # num instructions producing a value
system.cpu.iew.wb_rate                       1.516042                       # insts written-back per cycle
system.cpu.iew.wb_sent                        4198620                       # cumulative count of insts sent to commit
system.cpu.int_regfile_reads                  6518941                       # number of integer regfile reads
system.cpu.int_regfile_writes                 3610320                       # number of integer regfile writes
system.cpu.ipc                               0.761509                       # IPC: Instructions Per Cycle
system.cpu.ipc_total                         0.761509                       # IPC: Total IPC of All Threads
system.cpu.iq.FU_type_0::No_OpClass             27504      0.65%      0.65% # Type of FU issued
system.cpu.iq.FU_type_0::IntAlu               3319328     78.13%     78.78% # Type of FU issued
system.cpu.iq.FU_type_0::IntMult                 1600      0.04%     78.82% # Type of FU issued
system.cpu.iq.FU_type_0::IntDiv                 41437      0.98%     79.79% # Type of FU issued
system.cpu.iq.FU_type_0::FloatAdd                4812      0.11%     79.91% # Type of FU issued
system.cpu.iq.FU_type_0::FloatCmp                   0      0.00%     79.91% # Type of FU issued
system.cpu.iq.FU_type_0::FloatCvt                1304      0.03%     79.94% # Type of FU issued
system.cpu.iq.FU_type_0::FloatMult                  0      0.00%     79.94% # Type of FU issued
system.cpu.iq.FU_type_0::FloatMultAcc               0      0.00%     79.94% # Type of FU issued
system.cpu.iq.FU_type_0::FloatDiv                   0      0.00%     79.94% # Type of FU issued
system.cpu.iq.FU_type_0::FloatMisc                  0      0.00%     79.94% # Type of FU issued
system.cpu.iq.FU_type_0::FloatSqrt                  0      0.00%     79.94% # Type of FU issued
system.cpu.iq.FU_type_0::SimdAdd                 7038      0.17%     80.10% # Type of FU issued
system.cpu.iq.FU_type_0::SimdAddAcc                 0      0.00%     80.10% # Type of FU issued
system.cpu.iq.FU_type_0::SimdAlu                16447      0.39%     80.49% # Type of FU issued
system.cpu.iq.FU_type_0::SimdCmp                    0      0.00%     80.49% # Type of FU issued
system.cpu.iq.FU_type_0::SimdCvt                15317      0.36%     80.85% # Type of FU issued
system.cpu.iq.FU_type_0::SimdMisc                9667      0.23%     81.08% # Type of FU issued
system.cpu.iq.FU_type_0::SimdMult                   0      0.00%     81.08% # Type of FU issued
system.cpu.iq.FU_type_0::SimdMultAcc                0      0.00%     81.08% # Type of FU issued
system.cpu.iq.FU_type_0::SimdShift               2453      0.06%     81.14% # Type of FU issued
system.cpu.iq.FU_type_0::SimdShiftAcc               0      0.00%     81.14% # Type of FU issued
system.cpu.iq.FU_type_0::SimdDiv                    0      0.00%     81.14% # Type of FU issued
system.cpu.iq.FU_type_0::SimdSqrt                   0      0.00%     81.14% # Type of FU issued
system.cpu.iq.FU_type_0::SimdFloatAdd               0      0.00%     81.14% # Type of FU issued
system.cpu.iq.FU_type_0::SimdFloatAlu               0      0.00%     81.14% # Type of FU issued
system.cpu.iq.FU_type_0::SimdFloatCmp               0      0.00%     81.14% # Type of FU issued
system.cpu.iq.FU_type_0::SimdFloatCvt               0      0.00%     81.14% # Type of FU issued
system.cpu.iq.FU_type_0::SimdFloatDiv               0      0.00%     81.14% # Type of FU issued
system.cpu.iq.FU_type_0::SimdFloatMisc              0      0.00%     81.14% # Type of FU issued
system.cpu.iq.FU_type_0::SimdFloatMult              0      0.00%     81.14% # Type of FU issued
system.cpu.iq.FU_type_0::SimdFloatMultAcc            0      0.00%     81.14% # Type of FU issued
system.cpu.iq.FU_type_0::SimdFloatSqrt              0      0.00%     81.14% # Type of FU issued
system.cpu.iq.FU_type_0::SimdReduceAdd              0      0.00%     81.14% # Type of FU issued
system.cpu.iq.FU_type_0::SimdReduceAlu              0      0.00%     81.14% # Type of FU issued
system.cpu.iq.FU_type_0::SimdReduceCmp              0      0.00%     81.14% # Type of FU issued
system.cpu.iq.FU_type_0::SimdFloatReduceAdd            0      0.00%     81.14% # Type of FU issued
system.cpu.iq.FU_type_0::SimdFloatReduceCmp            0      0.00%     81.14% # Type of FU issued
system.cpu.iq.FU_type_0::SimdAes                    0      0.00%     81.14% # Type of FU issued
system.cpu.iq.FU_type_0::SimdAesMix                 0      0.00%     81.14% # Type of FU issued
system.cpu.iq.FU_type_0::SimdSha1Hash               0      0.00%     81.14% # Type of FU issued
system.cpu.iq.FU_type_0::SimdSha1Hash2              0      0.00%     81.14% # Type of FU issued
system.cpu.iq.FU_type_0::SimdSha256Hash             0      0.00%     81.14% # Type of FU issued
system.cpu.iq.FU_type_0::SimdSha256Hash2            0      0.00%     81.14% # Type of FU issued
system.cpu.iq.FU_type_0::SimdShaSigma2              0      0.00%     81.14% # Type of FU issued
system.cpu.iq.FU_type_0::SimdShaSigma3              0      0.00%     81.14% # Type of FU issued
system.cpu.iq.FU_type_0::SimdPredAlu                0      0.00%     81.14% # Type of FU issued
system.cpu.iq.FU_type_0::MemRead               571982     13.46%     94.60% # Type of FU issued
system.cpu.iq.FU_type_0::MemWrite              188797      4.44%     99.04% # Type of FU issued
system.cpu.iq.FU_type_0::FloatMemRead           26774      0.63%     99.67% # Type of FU issued
system.cpu.iq.FU_type_0::FloatMemWrite          13876      0.33%    100.00% # Type of FU issued
system.cpu.iq.FU_type_0::IprAccess                  0      0.00%    100.00% # Type of FU issued
system.cpu.iq.FU_type_0::InstPrefetch               0      0.00%    100.00% # Type of FU issued
system.cpu.iq.FU_type_0::total                4248336                       # Type of FU issued
system.cpu.iq.fp_alu_accesses                   99529                       # Number of floating point alu accesses
system.cpu.iq.fp_inst_queue_reads              200527                       # Number of floating instruction queue reads
system.cpu.iq.fp_inst_queue_wakeup_accesses        95795                       # Number of floating instruction queue wakeup accesses
system.cpu.iq.fp_inst_queue_writes             145329                       # Number of floating instruction queue writes
system.cpu.iq.fu_busy_cnt                           0                       # FU busy when requested
system.cpu.iq.fu_busy_rate                          0                       # FU busy rate (busy events/executed inst)
system.cpu.iq.fu_full::No_OpClass                   0                       # attempts to use FU when none available
system.cpu.iq.fu_full::IntAlu                       0                       # attempts to use FU when none available
system.cpu.iq.fu_full::IntMult                      0                       # attempts to use FU when none available
system.cpu.iq.fu_full::IntDiv                       0                       # attempts to use FU when none available
system.cpu.iq.fu_full::FloatAdd                     0                       # attempts to use FU when none available
system.cpu.iq.fu_full::FloatCmp                     0                       # attempts to use FU when none available
system.cpu.iq.fu_full::FloatCvt                     0                       # attempts to use FU when none available
system.cpu.iq.fu_full::FloatMult                    0                       # attempts to use FU when none available
system.cpu.iq.fu_full::FloatMultAcc                 0                       # attempts to use FU when none available
system.cpu.iq.fu_full::FloatDiv                     0                       # attempts to use FU when none available
system.cpu.iq.fu_full::FloatMisc                    0                       # attempts to use FU when none available
system.cpu.iq.fu_full::FloatSqrt                    0                       # attempts to use FU when none available
system.cpu.iq.fu_full::SimdAdd                      0                       # attempts to use FU when none available
system.cpu.iq.fu_full::SimdAddAcc                   0                       # attempts to use FU when none available
system.cpu.iq.fu_full::SimdAlu                      0                       # attempts to use FU when none available
system.cpu.iq.fu_full::SimdCmp                      0                       # attempts to use FU when none available
system.cpu.iq.fu_full::SimdCvt                      0                       # attempts to use FU when none available
system.cpu.iq.fu_full::SimdMisc                     0                       # attempts to use FU when none available
system.cpu.iq.fu_full::SimdMult                     0                       # attempts to use FU when none available
system.cpu.iq.fu_full::SimdMultAcc                  0                       # attempts to use FU when none available
system.cpu.iq.fu_full::SimdShift                    0                       # attempts to use FU when none available
system.cpu.iq.fu_full::SimdShiftAcc                 0                       # attempts to use FU when none available
system.cpu.iq.fu_full::SimdDiv                      0                       # attempts to use FU when none available
system.cpu.iq.fu_full::SimdSqrt                     0                       # attempts to use FU when none available
system.cpu.iq.fu_full::SimdFloatAdd                 0                       # attempts to use FU when none available
system.cpu.iq.fu_full::SimdFloatAlu                 0                       # attempts to use FU when none available
system.cpu.iq.fu_full::SimdFloatCmp                 0                       # attempts to use FU when none available
system.cpu.iq.fu_full::SimdFloatCvt                 0                       # attempts to use FU when none available
system.cpu.iq.fu_full::SimdFloatDiv                 0                       # attempts to use FU when none available
system.cpu.iq.fu_full::SimdFloatMisc                0                       # attempts to use FU when none available
system.cpu.iq.fu_full::SimdFloatMult                0                       # attempts to use FU when none available
system.cpu.iq.fu_full::SimdFloatMultAcc             0                       # attempts to use FU when none available
system.cpu.iq.fu_full::SimdFloatSqrt                0                       # attempts to use FU when none available
system.cpu.iq.fu_full::SimdReduceAdd                0                       # attempts to use FU when none available
system.cpu.iq.fu_full::SimdReduceAlu                0                       # attempts to use FU when none available
system.cpu.iq.fu_full::SimdReduceCmp                0                       # attempts to use FU when none available
system.cpu.iq.fu_full::SimdFloatReduceAdd            0                       # attempts to use FU when none available
system.cpu.iq.fu_full::SimdFloatReduceCmp            0                       # attempts to use FU when none available
system.cpu.iq.fu_full::SimdAes                      0                       # attempts to use FU when none available
system.cpu.iq.fu_full::SimdAesMix                   0                       # attempts to use FU when none available
system.cpu.iq.fu_full::SimdSha1Hash                 0                       # attempts to use FU when none available
system.cpu.iq.fu_full::SimdSha1Hash2                0                       # attempts to use FU when none available
system.cpu.iq.fu_full::SimdSha256Hash               0                       # attempts to use FU when none available
system.cpu.iq.fu_full::SimdSha256Hash2              0                       # attempts to use FU when none available
system.cpu.iq.fu_full::SimdShaSigma2                0                       # attempts to use FU when none available
system.cpu.iq.fu_full::SimdShaSigma3                0                       # attempts to use FU when none available
system.cpu.iq.fu_full::SimdPredAlu                  0                       # attempts to use FU when none available
system.cpu.iq.fu_full::MemRead                      0                       # attempts to use FU when none available
system.cpu.iq.fu_full::MemWrite                     0                       # attempts to use FU when none available
system.cpu.iq.fu_full::FloatMemRead                 0                       # attempts to use FU when none available
system.cpu.iq.fu_full::FloatMemWrite                0                       # attempts to use FU when none available
system.cpu.iq.fu_full::IprAccess                    0                       # attempts to use FU when none available
system.cpu.iq.fu_full::InstPrefetch                 0                       # attempts to use FU when none available
system.cpu.iq.int_alu_accesses                4121303                       # Number of integer alu accesses
system.cpu.iq.int_inst_queue_reads           10914844                       # Number of integer instruction queue reads
system.cpu.iq.int_inst_queue_wakeup_accesses      4095824                       # Number of integer instruction queue wakeup accesses
system.cpu.iq.int_inst_queue_writes           5314723                       # Number of integer instruction queue writes
system.cpu.iq.iqInstsAdded                    4568233                       # Number of instructions added to the IQ (excludes non-spec)
system.cpu.iq.iqInstsIssued                   4248336                       # Number of instructions issued
system.cpu.iq.iqNonSpecInstsAdded                1175                       # Number of non-speculative instructions added to the IQ
system.cpu.iq.iqSquashedInstsExamined          890565                       # Number of squashed instructions iterated over during squash; mainly for profiling
system.cpu.iq.iqSquashedInstsIssued             18532                       # Number of squashed instructions issued
system.cpu.iq.iqSquashedNonSpecRemoved            415                       # Number of squashed non-spec instructions that were removed
system.cpu.iq.iqSquashedOperandsExamined      1326454                       # Number of squashed operands that are examined and possibly removed from graph
system.cpu.iq.issued_per_cycle::samples       2600171                       # Number of insts issued each cycle
system.cpu.iq.issued_per_cycle::mean         1.633868                       # Number of insts issued each cycle
system.cpu.iq.issued_per_cycle::stdev        1.671249                       # Number of insts issued each cycle
system.cpu.iq.issued_per_cycle::underflows            0      0.00%      0.00% # Number of insts issued each cycle
system.cpu.iq.issued_per_cycle::0             1166678     44.87%     44.87% # Number of insts issued each cycle
system.cpu.iq.issued_per_cycle::1              175877      6.76%     51.63% # Number of insts issued each cycle
system.cpu.iq.issued_per_cycle::2              305994     11.77%     63.40% # Number of insts issued each cycle
system.cpu.iq.issued_per_cycle::3              346017     13.31%     76.71% # Number of insts issued each cycle
system.cpu.iq.issued_per_cycle::4              605605     23.29%    100.00% # Number of insts issued each cycle
system.cpu.iq.issued_per_cycle::overflows            0      0.00%    100.00% # Number of insts issued each cycle
system.cpu.iq.issued_per_cycle::min_value            0                       # Number of insts issued each cycle
system.cpu.iq.issued_per_cycle::max_value            4                       # Number of insts issued each cycle
system.cpu.iq.issued_per_cycle::total         2600171                       # Number of insts issued each cycle
system.cpu.iq.rate                           1.536555                       # Inst issue rate
system.cpu.iq.vec_alu_accesses                      0                       # Number of vector alu accesses
system.cpu.iq.vec_inst_queue_reads                  0                       # Number of vector instruction queue reads
system.cpu.iq.vec_inst_queue_wakeup_accesses            0                       # Number of vector instruction queue wakeup accesses
system.cpu.iq.vec_inst_queue_writes                 0                       # Number of vector instruction queue writes
system.cpu.itb.rdAccesses                           0                       # TLB accesses on read requests
system.cpu.itb.rdMisses                             0                       # TLB misses on read requests
system.cpu.itb.wrAccesses                      246577                       # TLB accesses on write requests
system.cpu.itb.wrMisses                           386                       # TLB misses on write requests
system.cpu.memDep0.conflictingLoads             11754                       # Number of conflicting loads.
system.cpu.memDep0.conflictingStores             4769                       # Number of conflicting stores.
system.cpu.memDep0.insertedLoads               618981                       # Number of loads inserted to the mem dependence unit.
system.cpu.memDep0.insertedStores              210427                       # Number of stores inserted to the mem dependence unit.
system.cpu.misc_regfile_reads                 1590176                       # number of misc regfile reads
system.cpu.misc_regfile_writes                    702                       # number of misc regfile writes
system.cpu.numCycles                          2764844                       # number of cpu cycles simulated
system.cpu.numWorkItemsCompleted                    0                       # number of work items this cpu completed
system.cpu.numWorkItemsStarted                      0                       # number of work items this cpu started
system.cpu.process.numSyscalls                     57                       # Number of system calls
system.cpu.rename.BlockCycles                  835616                       # Number of cycles rename is blocking
system.cpu.rename.CommittedMaps               5014023                       # Number of HB maps that are committed
system.cpu.rename.FullRegisterEvents              168                       # Number of times there has been no free registers
system.cpu.rename.IQFullEvents                  47396                       # Number of times rename has blocked due to IQ full
system.cpu.rename.IdleCycles                   352301                       # Number of cycles rename is idle
system.cpu.rename.LQFullEvents                  16463                       # Number of times rename has blocked due to LQ full
system.cpu.rename.ROBFullEvents                  4238                       # Number of times rename has blocked due to ROB full
system.cpu.rename.RenameLookups              12302782                       # Number of register rename lookups that rename has made
system.cpu.rename.RenamedInsts                4711408                       # Number of instructions processed by rename
system.cpu.rename.RenamedOperands             6413222                       # Number of destination operands rename has renamed
system.cpu.rename.RunCycles                   1194437                       # Number of cycles rename is running
system.cpu.rename.SQFullEvents                  72337                       # Number of times rename has blocked due to SQ full
system.cpu.rename.SquashCycles                  24440                       # Number of cycles rename is squashing
system.cpu.rename.UnblockCycles                173248                       # Number of cycles rename is unblocking
system.cpu.rename.UndoneMaps                  1399173                       # Number of HB maps that are undone due to squashing
system.cpu.rename.fp_rename_lookups            173584                       # Number of floating rename lookups
system.cpu.rename.int_rename_lookups          7464067                       # Number of integer rename lookups
system.cpu.rename.serializeStallCycles          20129                       # count of cycles rename stalled for serializing inst
system.cpu.rename.serializingInsts                897                       # count of serializing insts renamed
system.cpu.rename.skidInsts                    207714                       # count of insts added to the skid buffer
system.cpu.rename.tempSerializingInsts            951                       # count of temporary serializing insts renamed
system.cpu.rob.rob_reads                      6314517                       # The number of ROB reads
system.cpu.rob.rob_writes                     9382727                       # The number of ROB writes
system.cpu.timesIdled                            1657                       # Number of times that the entire CPU went into an idle state and unscheduled itself
system.l2bus.snoop_filter.hit_multi_requests           11                       # Number of requests hitting in the snoop filter with multiple (>1) holders of the requested data.
system.l2bus.snoop_filter.hit_multi_snoops            1                       # Number of snoops hitting in the snoop filter with multiple (>1) holders of the requested data.
system.l2bus.snoop_filter.hit_single_requests        18567                       # Number of requests hitting in the snoop filter with a single holder of the requested data.
system.l2bus.snoop_filter.hit_single_snoops          437                       # Number of snoops hitting in the snoop filter with a single holder of the requested data.
system.l2bus.snoop_filter.tot_requests          38410                       # Total number of requests made to the snoop filter.
system.l2bus.snoop_filter.tot_snoops              438                       # Total number of snoops made to the snoop filter.
system.l2cache.prefetcher.num_hwpf_issued          711                       # number of hwpf issued
system.l2cache.prefetcher.pfBufferHit               0                       # number of redundant prefetches already in prefetch queue
system.l2cache.prefetcher.pfIdentified            711                       # number of prefetch candidates identified
system.l2cache.prefetcher.pfInCache                 0                       # number of redundant prefetches already in cache/mshr dropped
system.l2cache.prefetcher.pfRemovedFull             0                       # number of prefetches dropped due to prefetch queue size
system.l2cache.prefetcher.pfSpanPage              129                       # number of prefetches that crossed the page
system.membus.snoop_filter.hit_multi_requests            0                       # Number of requests hitting in the snoop filter with multiple (>1) holders of the requested data.
system.membus.snoop_filter.hit_multi_snoops            0                       # Number of snoops hitting in the snoop filter with multiple (>1) holders of the requested data.
system.membus.snoop_filter.hit_single_requests         9461                       # Number of requests hitting in the snoop filter with a single holder of the requested data.
system.membus.snoop_filter.hit_single_snoops            0                       # Number of snoops hitting in the snoop filter with a single holder of the requested data.
system.membus.snoop_filter.tot_requests         23040                       # Total number of requests made to the snoop filter.
system.membus.snoop_filter.tot_snoops               0                       # Total number of snoops made to the snoop filter.
system.membus.pwrStateResidencyTicks::UNDEFINED   1105937200                       # Cumulative time (in ticks) in various power states
system.membus.trans_dist::ReadResp              12234                       # Transaction distribution
system.membus.trans_dist::WritebackDirty         1346                       # Transaction distribution
system.membus.trans_dist::CleanEvict             8115                       # Transaction distribution
system.membus.trans_dist::ReadExReq              1345                       # Transaction distribution
system.membus.trans_dist::ReadExResp             1345                       # Transaction distribution
system.membus.trans_dist::ReadSharedReq         12234                       # Transaction distribution
system.membus.pkt_count_system.l2cache.mem_side::system.mem_ctrl.port        36619                       # Packet count per connected master and slave (bytes)
system.membus.pkt_count_system.l2cache.mem_side::total        36619                       # Packet count per connected master and slave (bytes)
system.membus.pkt_count::total                  36619                       # Packet count per connected master and slave (bytes)
system.membus.pkt_size_system.l2cache.mem_side::system.mem_ctrl.port       955200                       # Cumulative packet size per connected master and slave (bytes)
system.membus.pkt_size_system.l2cache.mem_side::total       955200                       # Cumulative packet size per connected master and slave (bytes)
system.membus.pkt_size::total                  955200                       # Cumulative packet size per connected master and slave (bytes)
system.membus.snoops                                0                       # Total snoops (count)
system.membus.snoopTraffic                          0                       # Total snoop traffic (bytes)
system.membus.snoop_fanout::samples             13579                       # Request fanout histogram
system.membus.snoop_fanout::mean                    0                       # Request fanout histogram
system.membus.snoop_fanout::stdev                   0                       # Request fanout histogram
system.membus.snoop_fanout::underflows              0      0.00%      0.00% # Request fanout histogram
system.membus.snoop_fanout::0                   13579    100.00%    100.00% # Request fanout histogram
system.membus.snoop_fanout::1                       0      0.00%    100.00% # Request fanout histogram
system.membus.snoop_fanout::overflows               0      0.00%    100.00% # Request fanout histogram
system.membus.snoop_fanout::min_value               0                       # Request fanout histogram
system.membus.snoop_fanout::max_value               0                       # Request fanout histogram
system.membus.snoop_fanout::total               13579                       # Request fanout histogram
system.membus.reqLayer2.occupancy            11396977                       # Layer occupancy (ticks)
system.membus.reqLayer2.utilization               1.0                       # Layer utilization (%)
system.membus.respLayer0.occupancy           29471723                       # Layer occupancy (ticks)
system.membus.respLayer0.utilization              2.7                       # Layer utilization (%)
system.l2bus.pwrStateResidencyTicks::UNDEFINED   1105937200                       # Cumulative time (in ticks) in various power states
system.l2bus.trans_dist::ReadResp               17740                       # Transaction distribution
system.l2bus.trans_dist::WritebackDirty          4129                       # Transaction distribution
system.l2bus.trans_dist::CleanEvict             23981                       # Transaction distribution
system.l2bus.trans_dist::HardPFReq                999                       # Transaction distribution
system.l2bus.trans_dist::ReadExReq               2105                       # Transaction distribution
system.l2bus.trans_dist::ReadExResp              2105                       # Transaction distribution
system.l2bus.trans_dist::ReadSharedReq          17740                       # Transaction distribution
system.l2bus.pkt_count_system.cpu.icache.mem_side::system.l2cache.cpu_side         8519                       # Packet count per connected master and slave (bytes)
system.l2bus.pkt_count_system.cpu.dcache.mem_side::system.l2cache.cpu_side        49733                       # Packet count per connected master and slave (bytes)
system.l2bus.pkt_count::total                   58252                       # Packet count per connected master and slave (bytes)
system.l2bus.pkt_size_system.cpu.icache.mem_side::system.l2cache.cpu_side       187072                       # Cumulative packet size per connected master and slave (bytes)
system.l2bus.pkt_size_system.cpu.dcache.mem_side::system.l2cache.cpu_side      1260928                       # Cumulative packet size per connected master and slave (bytes)
system.l2bus.pkt_size::total                  1448000                       # Cumulative packet size per connected master and slave (bytes)
system.l2bus.snoops                             10547                       # Total snoops (count)
system.l2bus.snoopTraffic                       86336                       # Total snoop traffic (bytes)
system.l2bus.snoop_fanout::samples              30389                       # Request fanout histogram
system.l2bus.snoop_fanout::mean              0.014874                       # Request fanout histogram
system.l2bus.snoop_fanout::stdev             0.121321                       # Request fanout histogram
system.l2bus.snoop_fanout::underflows               0      0.00%      0.00% # Request fanout histogram
system.l2bus.snoop_fanout::0                    29938     98.52%     98.52% # Request fanout histogram
system.l2bus.snoop_fanout::1                      450      1.48%    100.00% # Request fanout histogram
system.l2bus.snoop_fanout::2                        1      0.00%    100.00% # Request fanout histogram
system.l2bus.snoop_fanout::overflows                0      0.00%    100.00% # Request fanout histogram
system.l2bus.snoop_fanout::min_value                0                       # Request fanout histogram
system.l2bus.snoop_fanout::max_value                2                       # Request fanout histogram
system.l2bus.snoop_fanout::total                30389                       # Request fanout histogram
system.l2bus.respLayer1.occupancy            20303997                       # Layer occupancy (ticks)
system.l2bus.respLayer1.utilization               1.8                       # Layer utilization (%)
system.l2bus.reqLayer0.occupancy             18997125                       # Layer occupancy (ticks)
system.l2bus.reqLayer0.utilization                1.7                       # Layer utilization (%)
system.l2bus.respLayer0.occupancy             3512397                       # Layer occupancy (ticks)
system.l2bus.respLayer0.utilization               0.3                       # Layer utilization (%)
system.clk_domain.clock                           400                       # Clock period in ticks
system.clk_domain.voltage_domain.voltage            1                       # Voltage in Volts
system.cpu.pwrStateResidencyTicks::ON      1105937200                       # Cumulative time (in ticks) in various power states
system.cpu.icache.pwrStateResidencyTicks::UNDEFINED   1105937200                       # Cumulative time (in ticks) in various power states
system.cpu.icache.demand_hits::.cpu.inst       242810                       # number of demand (read+write) hits
system.cpu.icache.demand_hits::total           242810                       # number of demand (read+write) hits
system.cpu.icache.overall_hits::.cpu.inst       242810                       # number of overall hits
system.cpu.icache.overall_hits::total          242810                       # number of overall hits
system.cpu.icache.demand_misses::.cpu.inst         3630                       # number of demand (read+write) misses
system.cpu.icache.demand_misses::total           3630                       # number of demand (read+write) misses
system.cpu.icache.overall_misses::.cpu.inst         3630                       # number of overall misses
system.cpu.icache.overall_misses::total          3630                       # number of overall misses
system.cpu.icache.demand_miss_latency::.cpu.inst    179460400                       # number of demand (read+write) miss cycles
system.cpu.icache.demand_miss_latency::total    179460400                       # number of demand (read+write) miss cycles
system.cpu.icache.overall_miss_latency::.cpu.inst    179460400                       # number of overall miss cycles
system.cpu.icache.overall_miss_latency::total    179460400                       # number of overall miss cycles
system.cpu.icache.demand_accesses::.cpu.inst       246440                       # number of demand (read+write) accesses
system.cpu.icache.demand_accesses::total       246440                       # number of demand (read+write) accesses
system.cpu.icache.overall_accesses::.cpu.inst       246440                       # number of overall (read+write) accesses
system.cpu.icache.overall_accesses::total       246440                       # number of overall (read+write) accesses
system.cpu.icache.demand_miss_rate::.cpu.inst     0.014730                       # miss rate for demand accesses
system.cpu.icache.demand_miss_rate::total     0.014730                       # miss rate for demand accesses
system.cpu.icache.overall_miss_rate::.cpu.inst     0.014730                       # miss rate for overall accesses
system.cpu.icache.overall_miss_rate::total     0.014730                       # miss rate for overall accesses
system.cpu.icache.demand_avg_miss_latency::.cpu.inst 49438.126722                       # average overall miss latency
system.cpu.icache.demand_avg_miss_latency::total 49438.126722                       # average overall miss latency
system.cpu.icache.overall_avg_miss_latency::.cpu.inst 49438.126722                       # average overall miss latency
system.cpu.icache.overall_avg_miss_latency::total 49438.126722                       # average overall miss latency
system.cpu.icache.blocked_cycles::no_mshrs           39                       # number of cycles access was blocked
system.cpu.icache.blocked_cycles::no_targets            0                       # number of cycles access was blocked
system.cpu.icache.blocked::no_mshrs                 2                       # number of cycles access was blocked
system.cpu.icache.blocked::no_targets               0                       # number of cycles access was blocked
system.cpu.icache.avg_blocked_cycles::no_mshrs    19.500000                       # average number of cycles each access was blocked
system.cpu.icache.avg_blocked_cycles::no_targets          nan                       # average number of cycles each access was blocked
system.cpu.icache.demand_mshr_hits::.cpu.inst          704                       # number of demand (read+write) MSHR hits
system.cpu.icache.demand_mshr_hits::total          704                       # number of demand (read+write) MSHR hits
system.cpu.icache.overall_mshr_hits::.cpu.inst          704                       # number of overall MSHR hits
system.cpu.icache.overall_mshr_hits::total          704                       # number of overall MSHR hits
system.cpu.icache.demand_mshr_misses::.cpu.inst         2926                       # number of demand (read+write) MSHR misses
system.cpu.icache.demand_mshr_misses::total         2926                       # number of demand (read+write) MSHR misses
system.cpu.icache.overall_mshr_misses::.cpu.inst         2926                       # number of overall MSHR misses
system.cpu.icache.overall_mshr_misses::total         2926                       # number of overall MSHR misses
system.cpu.icache.demand_mshr_miss_latency::.cpu.inst    145513600                       # number of demand (read+write) MSHR miss cycles
system.cpu.icache.demand_mshr_miss_latency::total    145513600                       # number of demand (read+write) MSHR miss cycles
system.cpu.icache.overall_mshr_miss_latency::.cpu.inst    145513600                       # number of overall MSHR miss cycles
system.cpu.icache.overall_mshr_miss_latency::total    145513600                       # number of overall MSHR miss cycles
system.cpu.icache.demand_mshr_miss_rate::.cpu.inst     0.011873                       # mshr miss rate for demand accesses
system.cpu.icache.demand_mshr_miss_rate::total     0.011873                       # mshr miss rate for demand accesses
system.cpu.icache.overall_mshr_miss_rate::.cpu.inst     0.011873                       # mshr miss rate for overall accesses
system.cpu.icache.overall_mshr_miss_rate::total     0.011873                       # mshr miss rate for overall accesses
system.cpu.icache.demand_avg_mshr_miss_latency::.cpu.inst 49731.237184                       # average overall mshr miss latency
system.cpu.icache.demand_avg_mshr_miss_latency::total 49731.237184                       # average overall mshr miss latency
system.cpu.icache.overall_avg_mshr_miss_latency::.cpu.inst 49731.237184                       # average overall mshr miss latency
system.cpu.icache.overall_avg_mshr_miss_latency::total 49731.237184                       # average overall mshr miss latency
system.cpu.icache.replacements                   2670                       # number of replacements
system.cpu.icache.ReadReq_hits::.cpu.inst       242810                       # number of ReadReq hits
system.cpu.icache.ReadReq_hits::total          242810                       # number of ReadReq hits
system.cpu.icache.ReadReq_misses::.cpu.inst         3630                       # number of ReadReq misses
system.cpu.icache.ReadReq_misses::total          3630                       # number of ReadReq misses
system.cpu.icache.ReadReq_miss_latency::.cpu.inst    179460400                       # number of ReadReq miss cycles
system.cpu.icache.ReadReq_miss_latency::total    179460400                       # number of ReadReq miss cycles
system.cpu.icache.ReadReq_accesses::.cpu.inst       246440                       # number of ReadReq accesses(hits+misses)
system.cpu.icache.ReadReq_accesses::total       246440                       # number of ReadReq accesses(hits+misses)
system.cpu.icache.ReadReq_miss_rate::.cpu.inst     0.014730                       # miss rate for ReadReq accesses
system.cpu.icache.ReadReq_miss_rate::total     0.014730                       # miss rate for ReadReq accesses
system.cpu.icache.ReadReq_avg_miss_latency::.cpu.inst 49438.126722                       # average ReadReq miss latency
system.cpu.icache.ReadReq_avg_miss_latency::total 49438.126722                       # average ReadReq miss latency
system.cpu.icache.ReadReq_mshr_hits::.cpu.inst          704                       # number of ReadReq MSHR hits
system.cpu.icache.ReadReq_mshr_hits::total          704                       # number of ReadReq MSHR hits
system.cpu.icache.ReadReq_mshr_misses::.cpu.inst         2926                       # number of ReadReq MSHR misses
system.cpu.icache.ReadReq_mshr_misses::total         2926                       # number of ReadReq MSHR misses
system.cpu.icache.ReadReq_mshr_miss_latency::.cpu.inst    145513600                       # number of ReadReq MSHR miss cycles
system.cpu.icache.ReadReq_mshr_miss_latency::total    145513600                       # number of ReadReq MSHR miss cycles
system.cpu.icache.ReadReq_mshr_miss_rate::.cpu.inst     0.011873                       # mshr miss rate for ReadReq accesses
system.cpu.icache.ReadReq_mshr_miss_rate::total     0.011873                       # mshr miss rate for ReadReq accesses
system.cpu.icache.ReadReq_avg_mshr_miss_latency::.cpu.inst 49731.237184                       # average ReadReq mshr miss latency
system.cpu.icache.ReadReq_avg_mshr_miss_latency::total 49731.237184                       # average ReadReq mshr miss latency
system.cpu.icache.prefetcher.pwrStateResidencyTicks::UNDEFINED   1105937200                       # Cumulative time (in ticks) in various power states
system.cpu.icache.tags.pwrStateResidencyTicks::UNDEFINED   1105937200                       # Cumulative time (in ticks) in various power states
system.cpu.icache.tags.tagsinuse           253.498749                       # Cycle average of tags in use
system.cpu.icache.tags.total_refs              235094                       # Total number of references to valid blocks.
system.cpu.icache.tags.sampled_refs              2670                       # Sample count of references to valid blocks.
system.cpu.icache.tags.avg_refs             88.050187                       # Average number of references to valid blocks.
system.cpu.icache.tags.warmup_cycle             66400                       # Cycle when the warmup percentage was hit.
system.cpu.icache.tags.occ_blocks::.cpu.inst   253.498749                       # Average occupied blocks per requestor
system.cpu.icache.tags.occ_percent::.cpu.inst     0.990229                       # Average percentage of cache occupancy
system.cpu.icache.tags.occ_percent::total     0.990229                       # Average percentage of cache occupancy
system.cpu.icache.tags.occ_task_id_blocks::1024          256                       # Occupied blocks per task id
system.cpu.icache.tags.age_task_id_blocks_1024::0          106                       # Occupied blocks per task id
system.cpu.icache.tags.age_task_id_blocks_1024::1          127                       # Occupied blocks per task id
system.cpu.icache.tags.age_task_id_blocks_1024::2           22                       # Occupied blocks per task id
system.cpu.icache.tags.age_task_id_blocks_1024::3            1                       # Occupied blocks per task id
system.cpu.icache.tags.occ_task_id_percent::1024            1                       # Percentage of cache occupancy per task id
system.cpu.icache.tags.tag_accesses            495806                       # Number of tag accesses
system.cpu.icache.tags.data_accesses           495806                       # Number of data accesses
system.cpu.dtb.walker.pwrStateResidencyTicks::UNDEFINED   1105937200                       # Cumulative time (in ticks) in various power states
system.cpu.interrupts.clk_domain.clock           6400                       # Clock period in ticks
system.cpu.itb.walker.pwrStateResidencyTicks::UNDEFINED   1105937200                       # Cumulative time (in ticks) in various power states
system.cpu.dcache.pwrStateResidencyTicks::UNDEFINED   1105937200                       # Cumulative time (in ticks) in various power states
system.cpu.dcache.demand_hits::.cpu.data       690499                       # number of demand (read+write) hits
system.cpu.dcache.demand_hits::total           690499                       # number of demand (read+write) hits
system.cpu.dcache.overall_hits::.cpu.data       690499                       # number of overall hits
system.cpu.dcache.overall_hits::total          690499                       # number of overall hits
system.cpu.dcache.demand_misses::.cpu.data        34773                       # number of demand (read+write) misses
system.cpu.dcache.demand_misses::total          34773                       # number of demand (read+write) misses
system.cpu.dcache.overall_misses::.cpu.data        34773                       # number of overall misses
system.cpu.dcache.overall_misses::total         34773                       # number of overall misses
system.cpu.dcache.demand_miss_latency::.cpu.data   1680391199                       # number of demand (read+write) miss cycles
system.cpu.dcache.demand_miss_latency::total   1680391199                       # number of demand (read+write) miss cycles
system.cpu.dcache.overall_miss_latency::.cpu.data   1680391199                       # number of overall miss cycles
system.cpu.dcache.overall_miss_latency::total   1680391199                       # number of overall miss cycles
system.cpu.dcache.demand_accesses::.cpu.data       725272                       # number of demand (read+write) accesses
system.cpu.dcache.demand_accesses::total       725272                       # number of demand (read+write) accesses
system.cpu.dcache.overall_accesses::.cpu.data       725272                       # number of overall (read+write) accesses
system.cpu.dcache.overall_accesses::total       725272                       # number of overall (read+write) accesses
system.cpu.dcache.demand_miss_rate::.cpu.data     0.047945                       # miss rate for demand accesses
system.cpu.dcache.demand_miss_rate::total     0.047945                       # miss rate for demand accesses
system.cpu.dcache.overall_miss_rate::.cpu.data     0.047945                       # miss rate for overall accesses
system.cpu.dcache.overall_miss_rate::total     0.047945                       # miss rate for overall accesses
system.cpu.dcache.demand_avg_miss_latency::.cpu.data 48324.596641                       # average overall miss latency
system.cpu.dcache.demand_avg_miss_latency::total 48324.596641                       # average overall miss latency
system.cpu.dcache.overall_avg_miss_latency::.cpu.data 48324.596641                       # average overall miss latency
system.cpu.dcache.overall_avg_miss_latency::total 48324.596641                       # average overall miss latency
system.cpu.dcache.blocked_cycles::no_mshrs        29566                       # number of cycles access was blocked
system.cpu.dcache.blocked_cycles::no_targets          138                       # number of cycles access was blocked
system.cpu.dcache.blocked::no_mshrs               789                       # number of cycles access was blocked
system.cpu.dcache.blocked::no_targets               1                       # number of cycles access was blocked
system.cpu.dcache.avg_blocked_cycles::no_mshrs    37.472750                       # average number of cycles each access was blocked
system.cpu.dcache.avg_blocked_cycles::no_targets          138                       # average number of cycles each access was blocked
system.cpu.dcache.unused_prefetches              1739                       # number of HardPF blocks evicted w/o reference
system.cpu.dcache.writebacks::.writebacks         2783                       # number of writebacks
system.cpu.dcache.writebacks::total              2783                       # number of writebacks
system.cpu.dcache.demand_mshr_hits::.cpu.data        22156                       # number of demand (read+write) MSHR hits
system.cpu.dcache.demand_mshr_hits::total        22156                       # number of demand (read+write) MSHR hits
system.cpu.dcache.overall_mshr_hits::.cpu.data        22156                       # number of overall MSHR hits
system.cpu.dcache.overall_mshr_hits::total        22156                       # number of overall MSHR hits
system.cpu.dcache.demand_mshr_misses::.cpu.data        12617                       # number of demand (read+write) MSHR misses
system.cpu.dcache.demand_mshr_misses::total        12617                       # number of demand (read+write) MSHR misses
system.cpu.dcache.overall_mshr_misses::.cpu.data        12617                       # number of overall MSHR misses
system.cpu.dcache.overall_mshr_misses::.cpu.dcache.prefetcher         4302                       # number of overall MSHR misses
system.cpu.dcache.overall_mshr_misses::total        16919                       # number of overall MSHR misses
system.cpu.dcache.demand_mshr_miss_latency::.cpu.data    575867199                       # number of demand (read+write) MSHR miss cycles
system.cpu.dcache.demand_mshr_miss_latency::total    575867199                       # number of demand (read+write) MSHR miss cycles
system.cpu.dcache.overall_mshr_miss_latency::.cpu.data    575867199                       # number of overall MSHR miss cycles
system.cpu.dcache.overall_mshr_miss_latency::.cpu.dcache.prefetcher    248117393                       # number of overall MSHR miss cycles
system.cpu.dcache.overall_mshr_miss_latency::total    823984592                       # number of overall MSHR miss cycles
system.cpu.dcache.demand_mshr_miss_rate::.cpu.data     0.017396                       # mshr miss rate for demand accesses
system.cpu.dcache.demand_mshr_miss_rate::total     0.017396                       # mshr miss rate for demand accesses
system.cpu.dcache.overall_mshr_miss_rate::.cpu.data     0.017396                       # mshr miss rate for overall accesses
system.cpu.dcache.overall_mshr_miss_rate::.cpu.dcache.prefetcher          inf                       # mshr miss rate for overall accesses
system.cpu.dcache.overall_mshr_miss_rate::total     0.023328                       # mshr miss rate for overall accesses
system.cpu.dcache.demand_avg_mshr_miss_latency::.cpu.data 45642.165253                       # average overall mshr miss latency
system.cpu.dcache.demand_avg_mshr_miss_latency::total 45642.165253                       # average overall mshr miss latency
system.cpu.dcache.overall_avg_mshr_miss_latency::.cpu.data 45642.165253                       # average overall mshr miss latency
system.cpu.dcache.overall_avg_mshr_miss_latency::.cpu.dcache.prefetcher 57674.893770                       # average overall mshr miss latency
system.cpu.dcache.overall_avg_mshr_miss_latency::total 48701.731308                       # average overall mshr miss latency
system.cpu.dcache.replacements                  15895                       # number of replacements
system.cpu.dcache.ReadReq_hits::.cpu.data       511869                       # number of ReadReq hits
system.cpu.dcache.ReadReq_hits::total          511869                       # number of ReadReq hits
system.cpu.dcache.ReadReq_misses::.cpu.data        32633                       # number of ReadReq misses
system.cpu.dcache.ReadReq_misses::total         32633                       # number of ReadReq misses
system.cpu.dcache.ReadReq_miss_latency::.cpu.data   1575382400                       # number of ReadReq miss cycles
system.cpu.dcache.ReadReq_miss_latency::total   1575382400                       # number of ReadReq miss cycles
system.cpu.dcache.ReadReq_accesses::.cpu.data       544502                       # number of ReadReq accesses(hits+misses)
system.cpu.dcache.ReadReq_accesses::total       544502                       # number of ReadReq accesses(hits+misses)
system.cpu.dcache.ReadReq_miss_rate::.cpu.data     0.059932                       # miss rate for ReadReq accesses
system.cpu.dcache.ReadReq_miss_rate::total     0.059932                       # miss rate for ReadReq accesses
system.cpu.dcache.ReadReq_avg_miss_latency::.cpu.data 48275.745411                       # average ReadReq miss latency
system.cpu.dcache.ReadReq_avg_miss_latency::total 48275.745411                       # average ReadReq miss latency
system.cpu.dcache.ReadReq_mshr_hits::.cpu.data        22119                       # number of ReadReq MSHR hits
system.cpu.dcache.ReadReq_mshr_hits::total        22119                       # number of ReadReq MSHR hits
system.cpu.dcache.ReadReq_mshr_misses::.cpu.data        10514                       # number of ReadReq MSHR misses
system.cpu.dcache.ReadReq_mshr_misses::total        10514                       # number of ReadReq MSHR misses
system.cpu.dcache.ReadReq_mshr_miss_latency::.cpu.data    473952000                       # number of ReadReq MSHR miss cycles
system.cpu.dcache.ReadReq_mshr_miss_latency::total    473952000                       # number of ReadReq MSHR miss cycles
system.cpu.dcache.ReadReq_mshr_miss_rate::.cpu.data     0.019309                       # mshr miss rate for ReadReq accesses
system.cpu.dcache.ReadReq_mshr_miss_rate::total     0.019309                       # mshr miss rate for ReadReq accesses
system.cpu.dcache.ReadReq_avg_mshr_miss_latency::.cpu.data 45078.181472                       # average ReadReq mshr miss latency
system.cpu.dcache.ReadReq_avg_mshr_miss_latency::total 45078.181472                       # average ReadReq mshr miss latency
system.cpu.dcache.WriteReq_hits::.cpu.data       178630                       # number of WriteReq hits
system.cpu.dcache.WriteReq_hits::total         178630                       # number of WriteReq hits
system.cpu.dcache.WriteReq_misses::.cpu.data         2140                       # number of WriteReq misses
system.cpu.dcache.WriteReq_misses::total         2140                       # number of WriteReq misses
system.cpu.dcache.WriteReq_miss_latency::.cpu.data    105008799                       # number of WriteReq miss cycles
system.cpu.dcache.WriteReq_miss_latency::total    105008799                       # number of WriteReq miss cycles
system.cpu.dcache.WriteReq_accesses::.cpu.data       180770                       # number of WriteReq accesses(hits+misses)
system.cpu.dcache.WriteReq_accesses::total       180770                       # number of WriteReq accesses(hits+misses)
system.cpu.dcache.WriteReq_miss_rate::.cpu.data     0.011838                       # miss rate for WriteReq accesses
system.cpu.dcache.WriteReq_miss_rate::total     0.011838                       # miss rate for WriteReq accesses
system.cpu.dcache.WriteReq_avg_miss_latency::.cpu.data 49069.532243                       # average WriteReq miss latency
system.cpu.dcache.WriteReq_avg_miss_latency::total 49069.532243                       # average WriteReq miss latency
system.cpu.dcache.WriteReq_mshr_hits::.cpu.data           37                       # number of WriteReq MSHR hits
system.cpu.dcache.WriteReq_mshr_hits::total           37                       # number of WriteReq MSHR hits
system.cpu.dcache.WriteReq_mshr_misses::.cpu.data         2103                       # number of WriteReq MSHR misses
system.cpu.dcache.WriteReq_mshr_misses::total         2103                       # number of WriteReq MSHR misses
system.cpu.dcache.WriteReq_mshr_miss_latency::.cpu.data    101915199                       # number of WriteReq MSHR miss cycles
[...]
system.l2cache.overall_mshr_miss_latency::total     23009960                       # number of overall MSHR miss cycles
system.l2cache.demand_mshr_miss_rate::.cpu.inst     0.496802                       # mshr miss rate for demand accesses
system.l2cache.demand_mshr_miss_rate::.cpu.data     0.511013                       # mshr miss rate for demand accesses
system.l2cache.demand_mshr_miss_rate::.cpu.dcache.prefetcher     0.729167                       # mshr miss rate for demand accesses
system.l2cache.demand_mshr_miss_rate::total     0.516129                       # mshr miss rate for demand accesses
system.l2cache.overall_mshr_miss_rate::.cpu.inst     0.496802                       # mshr miss rate for overall accesses
system.l2cache.overall_mshr_miss_rate::.cpu.data     0.511013                       # mshr miss rate for overall accesses
system.l2cache.overall_mshr_miss_rate::.cpu.dcache.prefetcher     0.729167                       # mshr miss rate for overall accesses
system.l2cache.overall_mshr_miss_rate::.l2cache.prefetcher          inf                       # mshr miss rate for overall accesses
system.l2cache.overall_mshr_miss_rate::total     0.518817                       # mshr miss rate for overall accesses
system.l2cache.demand_avg_mshr_miss_latency::.cpu.inst 59771.673820                       # average overall mshr miss latency
system.l2cache.demand_avg_mshr_miss_latency::.cpu.data 59420.689655                       # average overall mshr miss latency
system.l2cache.demand_avg_mshr_miss_latency::.cpu.dcache.prefetcher 59061.800000                       # average overall mshr miss latency
system.l2cache.demand_avg_mshr_miss_latency::total 59600.945312                       # average overall mshr miss latency
system.l2cache.overall_avg_mshr_miss_latency::.cpu.inst 59771.673820                       # average overall mshr miss latency
system.l2cache.overall_avg_mshr_miss_latency::.cpu.data 59420.689655                       # average overall mshr miss latency
system.l2cache.overall_avg_mshr_miss_latency::.cpu.dcache.prefetcher 59061.800000                       # average overall mshr miss latency
system.l2cache.overall_avg_mshr_miss_latency::.l2cache.prefetcher 61598.500000                       # average overall mshr miss latency
system.l2cache.overall_avg_mshr_miss_latency::total 59611.295337                       # average overall mshr miss latency
system.l2cache.replacements                       393                       # number of replacements
system.l2cache.WritebackDirty_hits::.writebacks           76                       # number of WritebackDirty hits
system.l2cache.WritebackDirty_hits::total           76                       # number of WritebackDirty hits
system.l2cache.WritebackDirty_accesses::.writebacks           76                       # number of WritebackDirty accesses(hits+misses)
system.l2cache.WritebackDirty_accesses::total           76                       # number of WritebackDirty accesses(hits+misses)
system.l2cache.CleanEvict_mshr_misses::.writebacks            8                       # number of CleanEvict MSHR misses
system.l2cache.CleanEvict_mshr_misses::total            8                       # number of CleanEvict MSHR misses
system.l2cache.CleanEvict_mshr_miss_rate::.writebacks          inf                       # mshr miss rate for CleanEvict accesses
system.l2cache.CleanEvict_mshr_miss_rate::total          inf                       # mshr miss rate for CleanEvict accesses
system.l2cache.HardPFReq_mshr_misses::.l2cache.prefetcher            2                       # number of HardPFReq MSHR misses
system.l2cache.HardPFReq_mshr_misses::total            2                       # number of HardPFReq MSHR misses
system.l2cache.HardPFReq_mshr_miss_latency::.l2cache.prefetcher       123197                       # number of HardPFReq MSHR miss cycles
system.l2cache.HardPFReq_mshr_miss_latency::total       123197                       # number of HardPFReq MSHR miss cycles
system.l2cache.HardPFReq_mshr_miss_rate::.l2cache.prefetcher          inf                       # mshr miss rate for HardPFReq accesses
system.l2cache.HardPFReq_mshr_miss_rate::total          inf                       # mshr miss rate for HardPFReq accesses
system.l2cache.HardPFReq_avg_mshr_miss_latency::.l2cache.prefetcher 61598.500000                       # average HardPFReq mshr miss latency
system.l2cache.HardPFReq_avg_mshr_miss_latency::total 61598.500000                       # average HardPFReq mshr miss latency
system.l2cache.ReadExReq_hits::.cpu.data            5                       # number of ReadExReq hits
system.l2cache.ReadExReq_hits::total                5                       # number of ReadExReq hits
system.l2cache.ReadExReq_misses::.cpu.data            7                       # number of ReadExReq misses
system.l2cache.ReadExReq_misses::total              7                       # number of ReadExReq misses
system.l2cache.ReadExReq_miss_latency::.cpu.data       446800                       # number of ReadExReq miss cycles
system.l2cache.ReadExReq_miss_latency::total       446800                       # number of ReadExReq miss cycles
system.l2cache.ReadExReq_accesses::.cpu.data           12                       # number of ReadExReq accesses(hits+misses)
system.l2cache.ReadExReq_accesses::total           12                       # number of ReadExReq accesses(hits+misses)
system.l2cache.ReadExReq_miss_rate::.cpu.data     0.583333                       # miss rate for ReadExReq accesses
system.l2cache.ReadExReq_miss_rate::total     0.583333                       # miss rate for ReadExReq accesses
system.l2cache.ReadExReq_avg_miss_latency::.cpu.data 63828.571429                       # average ReadExReq miss latency
system.l2cache.ReadExReq_avg_miss_latency::total 63828.571429                       # average ReadExReq miss latency
system.l2cache.ReadExReq_mshr_misses::.cpu.data            7                       # number of ReadExReq MSHR misses
system.l2cache.ReadExReq_mshr_misses::total            7                       # number of ReadExReq MSHR misses
system.l2cache.ReadExReq_mshr_miss_latency::.cpu.data       390800                       # number of ReadExReq MSHR miss cycles
system.l2cache.ReadExReq_mshr_miss_latency::total       390800                       # number of ReadExReq MSHR miss cycles
system.l2cache.ReadExReq_mshr_miss_rate::.cpu.data     0.583333                       # mshr miss rate for ReadExReq accesses
system.l2cache.ReadExReq_mshr_miss_rate::total     0.583333                       # mshr miss rate for ReadExReq accesses
system.l2cache.ReadExReq_avg_mshr_miss_latency::.cpu.data 55828.571429                       # average ReadExReq mshr miss latency
system.l2cache.ReadExReq_avg_mshr_miss_latency::total 55828.571429                       # average ReadExReq mshr miss latency
system.l2cache.ReadSharedReq_hits::.cpu.inst          236                       # number of ReadSharedReq hits
system.l2cache.ReadSharedReq_hits::.cpu.data          106                       # number of ReadSharedReq hits
system.l2cache.ReadSharedReq_hits::.cpu.dcache.prefetcher           13                       # number of ReadSharedReq hits
system.l2cache.ReadSharedReq_hits::total          355                       # number of ReadSharedReq hits
system.l2cache.ReadSharedReq_misses::.cpu.inst          233                       # number of ReadSharedReq misses
system.l2cache.ReadSharedReq_misses::.cpu.data          109                       # number of ReadSharedReq misses
system.l2cache.ReadSharedReq_misses::.cpu.dcache.prefetcher           35                       # number of ReadSharedReq misses
system.l2cache.ReadSharedReq_misses::total          377                       # number of ReadSharedReq misses
system.l2cache.ReadSharedReq_miss_latency::.cpu.inst     15782800                       # number of ReadSharedReq miss cycles
system.l2cache.ReadSharedReq_miss_latency::.cpu.data      7374000                       # number of ReadSharedReq miss cycles
system.l2cache.ReadSharedReq_miss_latency::.cpu.dcache.prefetcher      2347163                       # number of ReadSharedReq miss cycles
system.l2cache.ReadSharedReq_miss_latency::total     25503963                       # number of ReadSharedReq miss cycles
system.l2cache.ReadSharedReq_accesses::.cpu.inst          469                       # number of ReadSharedReq accesses(hits+misses)
system.l2cache.ReadSharedReq_accesses::.cpu.data          215                       # number of ReadSharedReq accesses(hits+misses)
system.l2cache.ReadSharedReq_accesses::.cpu.dcache.prefetcher           48                       # number of ReadSharedReq accesses(hits+misses)
system.l2cache.ReadSharedReq_accesses::total          732                       # number of ReadSharedReq accesses(hits+misses)
system.l2cache.ReadSharedReq_miss_rate::.cpu.inst     0.496802                       # miss rate for ReadSharedReq accesses
system.l2cache.ReadSharedReq_miss_rate::.cpu.data     0.506977                       # miss rate for ReadSharedReq accesses
system.l2cache.ReadSharedReq_miss_rate::.cpu.dcache.prefetcher     0.729167                       # miss rate for ReadSharedReq accesses
system.l2cache.ReadSharedReq_miss_rate::total     0.515027                       # miss rate for ReadSharedReq accesses
system.l2cache.ReadSharedReq_avg_miss_latency::.cpu.inst 67737.339056                       # average ReadSharedReq miss latency
system.l2cache.ReadSharedReq_avg_miss_latency::.cpu.data 67651.376147                       # average ReadSharedReq miss latency
system.l2cache.ReadSharedReq_avg_miss_latency::.cpu.dcache.prefetcher 67061.800000                       # average ReadSharedReq miss latency
system.l2cache.ReadSharedReq_avg_miss_latency::total 67649.769231                       # average ReadSharedReq miss latency
system.l2cache.ReadSharedReq_mshr_misses::.cpu.inst          233                       # number of ReadSharedReq MSHR misses
system.l2cache.ReadSharedReq_mshr_misses::.cpu.data          109                       # number of ReadSharedReq MSHR misses
system.l2cache.ReadSharedReq_mshr_misses::.cpu.dcache.prefetcher           35                       # number of ReadSharedReq MSHR misses
system.l2cache.ReadSharedReq_mshr_misses::total          377                       # number of ReadSharedReq MSHR misses
system.l2cache.ReadSharedReq_mshr_miss_latency::.cpu.inst     13926800                       # number of ReadSharedReq MSHR miss cycles
system.l2cache.ReadSharedReq_mshr_miss_latency::.cpu.data      6502000                       # number of ReadSharedReq MSHR miss cycles
system.l2cache.ReadSharedReq_mshr_miss_latency::.cpu.dcache.prefetcher      2067163                       # number of ReadSharedReq MSHR miss cycles
system.l2cache.ReadSharedReq_mshr_miss_latency::total     22495963                       # number of ReadSharedReq MSHR miss cycles
system.l2cache.ReadSharedReq_mshr_miss_rate::.cpu.inst     0.496802                       # mshr miss rate for ReadSharedReq accesses
system.l2cache.ReadSharedReq_mshr_miss_rate::.cpu.data     0.506977                       # mshr miss rate for ReadSharedReq accesses
system.l2cache.ReadSharedReq_mshr_miss_rate::.cpu.dcache.prefetcher     0.729167                       # mshr miss rate for ReadSharedReq accesses
system.l2cache.ReadSharedReq_mshr_miss_rate::total     0.515027                       # mshr miss rate for ReadSharedReq accesses
system.l2cache.ReadSharedReq_avg_mshr_miss_latency::.cpu.inst 59771.673820                       # average ReadSharedReq mshr miss latency
system.l2cache.ReadSharedReq_avg_mshr_miss_latency::.cpu.data 59651.376147                       # average ReadSharedReq mshr miss latency
system.l2cache.ReadSharedReq_avg_mshr_miss_latency::.cpu.dcache.prefetcher 59061.800000                       # average ReadSharedReq mshr miss latency
system.l2cache.ReadSharedReq_avg_mshr_miss_latency::total 59670.989390                       # average ReadSharedReq mshr miss latency
system.l2cache.prefetcher.pwrStateResidencyTicks::UNDEFINED     27274000                       # Cumulative time (in ticks) in various power states
system.l2cache.tags.pwrStateResidencyTicks::UNDEFINED     27274000                       # Cumulative time (in ticks) in various power states
system.l2cache.tags.tagsinuse                    4096                       # Cycle average of tags in use
system.l2cache.tags.total_refs                  14038                       # Total number of references to valid blocks.
system.l2cache.tags.sampled_refs                 4489                       # Sample count of references to valid blocks.
system.l2cache.tags.avg_refs                 3.127200                       # Average number of references to valid blocks.
system.l2cache.tags.warmup_cycle                    0                       # Cycle when the warmup percentage was hit.
system.l2cache.tags.occ_blocks::.writebacks    38.799281                       # Average occupied blocks per requestor
system.l2cache.tags.occ_blocks::.cpu.inst  1141.146884                       # Average occupied blocks per requestor
system.l2cache.tags.occ_blocks::.cpu.data  1812.215749                       # Average occupied blocks per requestor
system.l2cache.tags.occ_blocks::.cpu.dcache.prefetcher   976.520831                       # Average occupied blocks per requestor
system.l2cache.tags.occ_blocks::.l2cache.prefetcher   127.317254                       # Average occupied blocks per requestor
system.l2cache.tags.occ_percent::.writebacks     0.009472                       # Average percentage of cache occupancy
system.l2cache.tags.occ_percent::.cpu.inst     0.278600                       # Average percentage of cache occupancy
system.l2cache.tags.occ_percent::.cpu.data     0.442435                       # Average percentage of cache occupancy
system.l2cache.tags.occ_percent::.cpu.dcache.prefetcher     0.238408                       # Average percentage of cache occupancy
system.l2cache.tags.occ_percent::.l2cache.prefetcher     0.031083                       # Average percentage of cache occupancy
system.l2cache.tags.occ_percent::total              1                       # Average percentage of cache occupancy
system.l2cache.tags.occ_task_id_blocks::1022         1044                       # Occupied blocks per task id
system.l2cache.tags.occ_task_id_blocks::1024         3052                       # Occupied blocks per task id
system.l2cache.tags.age_task_id_blocks_1022::0           11                       # Occupied blocks per task id
system.l2cache.tags.age_task_id_blocks_1022::1          124                       # Occupied blocks per task id
system.l2cache.tags.age_task_id_blocks_1022::2          907                       # Occupied blocks per task id
system.l2cache.tags.age_task_id_blocks_1022::3            2                       # Occupied blocks per task id
system.l2cache.tags.age_task_id_blocks_1024::0          177                       # Occupied blocks per task id
system.l2cache.tags.age_task_id_blocks_1024::1          817                       # Occupied blocks per task id
system.l2cache.tags.age_task_id_blocks_1024::2         2016                       # Occupied blocks per task id
system.l2cache.tags.age_task_id_blocks_1024::3           42                       # Occupied blocks per task id
system.l2cache.tags.occ_task_id_percent::1022     0.254883                       # Percentage of cache occupancy per task id
system.l2cache.tags.occ_task_id_percent::1024     0.745117                       # Percentage of cache occupancy per task id
system.l2cache.tags.tag_accesses                12281                       # Number of tag accesses
system.l2cache.tags.data_accesses               12281                       # Number of data accesses
system.mem_ctrl.pwrStateResidencyTicks::UNDEFINED     27274000                       # Cumulative time (in ticks) in various power states
system.mem_ctrl.bytes_read::.cpu.inst           14848                       # Number of bytes read from this memory
system.mem_ctrl.bytes_read::.cpu.data            7424                       # Number of bytes read from this memory
system.mem_ctrl.bytes_read::.cpu.dcache.prefetcher         2240                       # Number of bytes read from this memory
system.mem_ctrl.bytes_read::.l2cache.prefetcher          128                       # Number of bytes read from this memory
system.mem_ctrl.bytes_read::total               24640                       # Number of bytes read from this memory
system.mem_ctrl.bytes_inst_read::.cpu.inst        14848                       # Number of instructions bytes read from this memory
system.mem_ctrl.bytes_inst_read::total          14848                       # Number of instructions bytes read from this memory
system.mem_ctrl.bytes_written::.writebacks         1472                       # Number of bytes written to this memory
system.mem_ctrl.bytes_written::total             1472                       # Number of bytes written to this memory
system.mem_ctrl.num_reads::.cpu.inst              232                       # Number of read requests responded to by this memory
system.mem_ctrl.num_reads::.cpu.data              116                       # Number of read requests responded to by this memory
system.mem_ctrl.num_reads::.cpu.dcache.prefetcher           35                       # Number of read requests responded to by this memory
system.mem_ctrl.num_reads::.l2cache.prefetcher            2                       # Number of read requests responded to by this memory
system.mem_ctrl.num_reads::total                  385                       # Number of read requests responded to by this memory
system.mem_ctrl.num_writes::.writebacks            23                       # Number of write requests responded to by this memory
system.mem_ctrl.num_writes::total                  23                       # Number of write requests responded to by this memory
system.mem_ctrl.bw_read::.cpu.inst          544401261                       # Total read bandwidth from this memory (bytes/s)
system.mem_ctrl.bw_read::.cpu.data          272200631                       # Total read bandwidth from this memory (bytes/s)
system.mem_ctrl.bw_read::.cpu.dcache.prefetcher     82129501                       # Total read bandwidth from this memory (bytes/s)
system.mem_ctrl.bw_read::.l2cache.prefetcher      4693114                       # Total read bandwidth from this memory (bytes/s)
system.mem_ctrl.bw_read::total              903424507                       # Total read bandwidth from this memory (bytes/s)
system.mem_ctrl.bw_inst_read::.cpu.inst     544401261                       # Instruction read bandwidth from this memory (bytes/s)
system.mem_ctrl.bw_inst_read::total         544401261                       # Instruction read bandwidth from this memory (bytes/s)
system.mem_ctrl.bw_write::.writebacks        53970815                       # Write bandwidth from this memory (bytes/s)
system.mem_ctrl.bw_write::total              53970815                       # Write bandwidth from this memory (bytes/s)
system.mem_ctrl.bw_total::.writebacks        53970815                       # Total bandwidth to/from this memory (bytes/s)
system.mem_ctrl.bw_total::.cpu.inst         544401261                       # Total bandwidth to/from this memory (bytes/s)
system.mem_ctrl.bw_total::.cpu.data         272200631                       # Total bandwidth to/from this memory (bytes/s)
system.mem_ctrl.bw_total::.cpu.dcache.prefetcher     82129501                       # Total bandwidth to/from this memory (bytes/s)
system.mem_ctrl.bw_total::.l2cache.prefetcher      4693114                       # Total bandwidth to/from this memory (bytes/s)
system.mem_ctrl.bw_total::total             957395322                       # Total bandwidth to/from this memory (bytes/s)

---------- End Simulation Statistics   ----------
