
---------- Begin Simulation Statistics ----------
final_tick                                 1085076800                       # Number of ticks from beginning of simulation (restored from checkpoints and never reset)
host_inst_rate                                 179460                       # Simulator instruction rate (inst/s)
host_mem_usage                                4402748                       # Number of bytes of host memory used
host_op_rate                                   311736                       # Simulator op (including micro ops) rate (op/s)
host_seconds                                    11.42                       # Real time elapsed on the host
host_tick_rate                               94980741                       # Simulator tick rate (ticks/s)
sim_freq                                 1000000000000                       # Frequency of simulated ticks
sim_insts                                     2050167                       # Number of instructions simulated
sim_ops                                       3561318                       # Number of ops (including micro ops) simulated
sim_seconds                                  0.001085                       # Number of seconds simulated
sim_ticks                                  1085076800                       # Number of ticks simulated
system.cpu.branchPred.BTBCorrect                    0                       # Number of correct BTB predictions (this stat may not work properly.
system.cpu.branchPred.BTBHitPct              0.000000                       # BTB Hit Percentage
system.cpu.branchPred.BTBHits                       0                       # Number of BTB hits
system.cpu.branchPred.BTBLookups               435329                       # Number of BTB lookups
system.cpu.branchPred.RASInCorrect                  6                       # Number of incorrect RAS predictions.
system.cpu.branchPred.condIncorrect             24616                       # Number of conditional branches incorrect
system.cpu.branchPred.condPredicted            462339                       # Number of conditional branches predicted
system.cpu.branchPred.indirectHits             238300                       # Number of indirect target hits.
system.cpu.branchPred.indirectLookups          435329                       # Number of indirect predictor lookups.
system.cpu.branchPred.indirectMisses           197029                       # Number of indirect misses.
system.cpu.branchPred.lookups                  488209                       # Number of BP lookups
system.cpu.branchPred.usedRAS                   11118                       # Number of times the RAS was used to get a target.
system.cpu.branchPredindirectMispredicted        12430                       # Number of mispredicted indirect branches.
system.cpu.cc_regfile_reads                   2351520                       # number of cc regfile reads
system.cpu.cc_regfile_writes                  1928043                       # number of cc regfile writes
system.cpu.commit.amos                              0                       # Number of atomic instructions committed
system.cpu.commit.branchMispredicts             24675                       # The number of times a branch was mispredicted
system.cpu.commit.branches                     341854                       # Number of branches committed
system.cpu.commit.bw_lim_events                590867                       # number cycles where commit BW limit reached
system.cpu.commit.commitNonSpecStalls             732                       # The number of times commit has been forced to stall to communicate backwards
system.cpu.commit.commitSquashedInsts          892202                       # The number of squashed insts skipped by commit
system.cpu.commit.committedInsts              2050167                       # Number of instructions committed
system.cpu.commit.committedOps                3561318                       # Number of ops (including micro ops) committed
system.cpu.commit.committed_per_cycle::samples      2319588                       # Number of insts commited each cycle
system.cpu.commit.committed_per_cycle::mean     1.535324                       # Number of insts commited each cycle
system.cpu.commit.committed_per_cycle::stdev     1.723006                       # Number of insts commited each cycle
system.cpu.commit.committed_per_cycle::underflows            0      0.00%      0.00% # Number of insts commited each cycle
system.cpu.commit.committed_per_cycle::0      1154735     49.78%     49.78% # Number of insts commited each cycle
system.cpu.commit.committed_per_cycle::1       177421      7.65%     57.43% # Number of insts commited each cycle
system.cpu.commit.committed_per_cycle::2       169266      7.30%     64.73% # Number of insts commited each cycle
system.cpu.commit.committed_per_cycle::3       227299      9.80%     74.53% # Number of insts commited each cycle
system.cpu.commit.committed_per_cycle::4       590867     25.47%    100.00% # Number of insts commited each cycle
system.cpu.commit.committed_per_cycle::overflows            0      0.00%    100.00% # Number of insts commited each cycle
system.cpu.commit.committed_per_cycle::min_value            0                       # Number of insts commited each cycle
system.cpu.commit.committed_per_cycle::max_value            4                       # Number of insts commited each cycle
system.cpu.commit.committed_per_cycle::total      2319588                       # Number of insts commited each cycle
system.cpu.commit.fp_insts                      73106                       # Number of committed floating point instructions.
system.cpu.commit.function_calls                 9268                       # Number of function calls committed.
system.cpu.commit.int_insts                   3506855                       # Number of committed integer instructions.
system.cpu.commit.loads                        487666                       # Number of loads committed
system.cpu.commit.membars                           1                       # Number of memory barriers committed
system.cpu.commit.op_class_0::No_OpClass        20275      0.57%      0.57% # Class of committed instruction
system.cpu.commit.op_class_0::IntAlu          2803273     78.71%     79.28% # Class of committed instruction
system.cpu.commit.op_class_0::IntMult            1531      0.04%     79.33% # Class of committed instruction
system.cpu.commit.op_class_0::IntDiv            37861      1.06%     80.39% # Class of committed instruction
system.cpu.commit.op_class_0::FloatAdd           2852      0.08%     80.47% # Class of committed instruction
system.cpu.commit.op_class_0::FloatCmp              0      0.00%     80.47% # Class of committed instruction
system.cpu.commit.op_class_0::FloatCvt           1200      0.03%     80.50% # Class of committed instruction
system.cpu.commit.op_class_0::FloatMult             0      0.00%     80.50% # Class of committed instruction
system.cpu.commit.op_class_0::FloatMultAcc            0      0.00%     80.50% # Class of committed instruction
system.cpu.commit.op_class_0::FloatDiv              0      0.00%     80.50% # Class of committed instruction
system.cpu.commit.op_class_0::FloatMisc             0      0.00%     80.50% # Class of committed instruction
system.cpu.commit.op_class_0::FloatSqrt             0      0.00%     80.50% # Class of committed instruction
system.cpu.commit.op_class_0::SimdAdd            6206      0.17%     80.68% # Class of committed instruction
system.cpu.commit.op_class_0::SimdAddAcc            0      0.00%     80.68% # Class of committed instruction
system.cpu.commit.op_class_0::SimdAlu           11160      0.31%     80.99% # Class of committed instruction
system.cpu.commit.op_class_0::SimdCmp               0      0.00%     80.99% # Class of committed instruction
system.cpu.commit.op_class_0::SimdCvt           12094      0.34%     81.33% # Class of committed instruction
system.cpu.commit.op_class_0::SimdMisc           6501      0.18%     81.51% # Class of committed instruction
system.cpu.commit.op_class_0::SimdMult              0      0.00%     81.51% # Class of committed instruction
system.cpu.commit.op_class_0::SimdMultAcc            0      0.00%     81.51% # Class of committed instruction
system.cpu.commit.op_class_0::SimdShift          1091      0.03%     81.54% # Class of committed instruction
system.cpu.commit.op_class_0::SimdShiftAcc            0      0.00%     81.54% # Class of committed instruction
system.cpu.commit.op_class_0::SimdDiv               0      0.00%     81.54% # Class of committed instruction
system.cpu.commit.op_class_0::SimdSqrt              0      0.00%     81.54% # Class of committed instruction
system.cpu.commit.op_class_0::SimdFloatAdd            0      0.00%     81.54% # Class of committed instruction
system.cpu.commit.op_class_0::SimdFloatAlu            0      0.00%     81.54% # Class of committed instruction
system.cpu.commit.op_class_0::SimdFloatCmp            0      0.00%     81.54% # Class of committed instruction
system.cpu.commit.op_class_0::SimdFloatCvt            0      0.00%     81.54% # Class of committed instruction
system.cpu.commit.op_class_0::SimdFloatDiv            0      0.00%     81.54% # Class of committed instruction
system.cpu.commit.op_class_0::SimdFloatMisc            0      0.00%     81.54% # Class of committed instruction
system.cpu.commit.op_class_0::SimdFloatMult            0      0.00%     81.54% # Class of committed instruction
system.cpu.commit.op_class_0::SimdFloatMultAcc            0      0.00%     81.54% # Class of committed instruction
system.cpu.commit.op_class_0::SimdFloatSqrt            0      0.00%     81.54% # Class of committed instruction
system.cpu.commit.op_class_0::SimdReduceAdd            0      0.00%     81.54% # Class of committed instruction
system.cpu.commit.op_class_0::SimdReduceAlu            0      0.00%     81.54% # Class of committed instruction
system.cpu.commit.op_class_0::SimdReduceCmp            0      0.00%     81.54% # Class of committed instruction
system.cpu.commit.op_class_0::SimdFloatReduceAdd            0      0.00%     81.54% # Class of committed instruction
system.cpu.commit.op_class_0::SimdFloatReduceCmp            0      0.00%     81.54% # Class of committed instruction
system.cpu.commit.op_class_0::SimdAes               0      0.00%     81.54% # Class of committed instruction
system.cpu.commit.op_class_0::SimdAesMix            0      0.00%     81.54% # Class of committed instruction
system.cpu.commit.op_class_0::SimdSha1Hash            0      0.00%     81.54% # Class of committed instruction
system.cpu.commit.op_class_0::SimdSha1Hash2            0      0.00%     81.54% # Class of committed instruction
system.cpu.commit.op_class_0::SimdSha256Hash            0      0.00%     81.54% # Class of committed instruction
system.cpu.commit.op_class_0::SimdSha256Hash2            0      0.00%     81.54% # Class of committed instruction
system.cpu.commit.op_class_0::SimdShaSigma2            0      0.00%     81.54% # Class of committed instruction
system.cpu.commit.op_class_0::SimdShaSigma3            0      0.00%     81.54% # Class of committed instruction
system.cpu.commit.op_class_0::SimdPredAlu            0      0.00%     81.54% # Class of committed instruction
system.cpu.commit.op_class_0::MemRead          468568     13.16%     94.70% # Class of committed instruction
system.cpu.commit.op_class_0::MemWrite         157539      4.42%     99.12% # Class of committed instruction
system.cpu.commit.op_class_0::FloatMemRead        19098      0.54%     99.66% # Class of committed instruction
system.cpu.commit.op_class_0::FloatMemWrite        12069      0.34%    100.00% # Class of committed instruction
system.cpu.commit.op_class_0::IprAccess             0      0.00%    100.00% # Class of committed instruction
system.cpu.commit.op_class_0::InstPrefetch            0      0.00%    100.00% # Class of committed instruction
system.cpu.commit.op_class_0::total           3561318                       # Class of committed instruction
system.cpu.commit.refs                         657274                       # Number of memory references committed
system.cpu.commit.swp_count                         0                       # Number of s/w prefetches committed
system.cpu.commit.vec_insts                         0                       # Number of committed Vector instructions.
system.cpu.committedInsts                     2050167                       # Number of Instructions Simulated
system.cpu.committedOps                       3561318                       # Number of Ops (including micro ops) Simulated
system.cpu.cpi                               1.323157                       # CPI: Cycles Per Instruction
system.cpu.cpi_total                         1.323157                       # CPI: Total CPI of All Threads
system.cpu.dcache.prefetcher.num_hwpf_issued         7815                       # number of hwpf issued
system.cpu.dcache.prefetcher.pfBufferHit        33865                       # number of redundant prefetches already in prefetch queue
system.cpu.dcache.prefetcher.pfIdentified        49161                       # number of prefetch candidates identified
system.cpu.dcache.prefetcher.pfInCache              0                       # number of redundant prefetches already in cache/mshr dropped
system.cpu.dcache.prefetcher.pfRemovedFull            0                       # number of prefetches dropped due to prefetch queue size
system.cpu.dcache.prefetcher.pfSpanPage          4251                       # number of prefetches that crossed the page
system.cpu.decode.BlockedCycles               1025374                       # Number of cycles decode is blocked
system.cpu.decode.DecodedInsts                4674534                       # Number of instructions handled by decode
system.cpu.decode.IdleCycles                   290423                       # Number of cycles decode is idle
system.cpu.decode.RunCycles                   1133268                       # Number of cycles decode is running
system.cpu.decode.SquashCycles                  24739                       # Number of cycles decode is squashing
system.cpu.decode.UnblockCycles                 89477                       # Number of cycles decode is unblocking
system.cpu.dtb.rdAccesses                      572178                       # TLB accesses on read requests
system.cpu.dtb.rdMisses                          2184                       # TLB misses on read requests
system.cpu.dtb.wrAccesses                      189002                       # TLB accesses on write requests
system.cpu.dtb.wrMisses                           155                       # TLB misses on write requests
system.cpu.fetch.Branches                      488209                       # Number of branches that fetch encountered
system.cpu.fetch.CacheLines                    240940                       # Number of cache lines fetched
system.cpu.fetch.Cycles                       2210606                       # Number of cycles fetch has run and was not squashing or blocked
system.cpu.fetch.IcacheSquashes                  4613                       # Number of outstanding Icache misses that were squashed
system.cpu.fetch.Insts                        2826259                       # Number of instructions fetch has processed
system.cpu.fetch.MiscStallCycles                   84                       # Number of cycles fetch has spent waiting on interrupts, or bad addresses, or out of MSHRs
system.cpu.fetch.PendingQuiesceStallCycles            6                       # Number of stall cycles due to pending quiesce instructions
system.cpu.fetch.PendingTrapStallCycles           465                       # Number of stall cycles due to pending traps
system.cpu.fetch.SquashCycles                   49478                       # Number of cycles fetch has spent squashing
system.cpu.fetch.branchRate                  0.179972                       # Number of branch fetches per cycle
system.cpu.fetch.icacheStallCycles             327381                       # Number of cycles fetch is stalled on an Icache miss
system.cpu.fetch.predictedBranches             249418                       # Number of branches that fetch has predicted taken
system.cpu.fetch.rate                        1.041865                       # Number of inst fetches per cycle
system.cpu.fetch.rateDist::samples            2563281                       # Number of instructions fetched each cycle (Total)
system.cpu.fetch.rateDist::mean              1.932898                       # Number of instructions fetched each cycle (Total)
system.cpu.fetch.rateDist::stdev             1.930701                       # Number of instructions fetched each cycle (Total)
system.cpu.fetch.rateDist::underflows               0      0.00%      0.00% # Number of instructions fetched each cycle (Total)
system.cpu.fetch.rateDist::0                  1221000     47.63%     47.63% # Number of instructions fetched each cycle (Total)
system.cpu.fetch.rateDist::1                    72936      2.85%     50.48% # Number of instructions fetched each cycle (Total)
system.cpu.fetch.rateDist::2                    59697      2.33%     52.81% # Number of instructions fetched each cycle (Total)
system.cpu.fetch.rateDist::3                    76362      2.98%     55.79% # Number of instructions fetched each cycle (Total)
system.cpu.fetch.rateDist::4                  1133286     44.21%    100.00% # Number of instructions fetched each cycle (Total)
system.cpu.fetch.rateDist::overflows                0      0.00%    100.00% # Number of instructions fetched each cycle (Total)
system.cpu.fetch.rateDist::min_value                0                       # Number of instructions fetched each cycle (Total)
system.cpu.fetch.rateDist::max_value                4                       # Number of instructions fetched each cycle (Total)
system.cpu.fetch.rateDist::total              2563281                       # Number of instructions fetched each cycle (Total)
system.cpu.fp_regfile_reads                    118254                       # number of floating regfile reads
system.cpu.fp_regfile_writes                    64897                       # number of floating regfile writes
system.cpu.fuPool.fu_ticks_busy::IntALU(0)    215758000                       # Total ticks fu was busy
system.cpu.fuPool.fu_ticks_busy::IntALU(1)    215757600                       # Total ticks fu was busy
system.cpu.fuPool.fu_ticks_busy::IntALU(2)    215757600                       # Total ticks fu was busy
system.cpu.fuPool.fu_ticks_busy::IntALU(3)    215757600                       # Total ticks fu was busy
system.cpu.fuPool.fu_ticks_busy::IntALU(4)    215757600                       # Total ticks fu was busy
system.cpu.fuPool.fu_ticks_busy::IntALU(5)    215757600                       # Total ticks fu was busy
system.cpu.fuPool.fu_ticks_busy::IntMultDiv(0)      8686400                       # Total ticks fu was busy
system.cpu.fuPool.fu_ticks_busy::IntMultDiv(1)      8686000                       # Total ticks fu was busy
system.cpu.fuPool.fu_ticks_busy::FP_ALU(0)       553200                       # Total ticks fu was busy
system.cpu.fuPool.fu_ticks_busy::FP_ALU(1)       553200                       # Total ticks fu was busy
system.cpu.fuPool.fu_ticks_busy::FP_ALU(2)       552800                       # Total ticks fu was busy
system.cpu.fuPool.fu_ticks_busy::FP_ALU(3)       552800                       # Total ticks fu was busy
system.cpu.fuPool.fu_ticks_busy::FP_MultDiv(0)            0                       # Total ticks fu was busy
system.cpu.fuPool.fu_ticks_busy::FP_MultDiv(1)            0                       # Total ticks fu was busy
system.cpu.fuPool.fu_ticks_busy::SIMD_Unit(0)      4436000                       # Total ticks fu was busy
system.cpu.fuPool.fu_ticks_busy::SIMD_Unit(1)      4327600                       # Total ticks fu was busy
system.cpu.fuPool.fu_ticks_busy::SIMD_Unit(2)      4416400                       # Total ticks fu was busy
system.cpu.fuPool.fu_ticks_busy::SIMD_Unit(3)      4531200                       # Total ticks fu was busy
system.cpu.fuPool.fu_ticks_busy::PredALU(0)            0                       # Total ticks fu was busy
system.cpu.fuPool.fu_ticks_busy::RdWrPort(0)     77668800                       # Total ticks fu was busy
system.cpu.fuPool.fu_ticks_busy::RdWrPort(1)     77585200                       # Total ticks fu was busy
system.cpu.fuPool.fu_ticks_busy::RdWrPort(2)     77647600                       # Total ticks fu was busy
system.cpu.fuPool.fu_ticks_busy::RdWrPort(3)     77656800                       # Total ticks fu was busy
system.cpu.fuPool.fu_ticks_busy::IprPort(0)            0                       # Total ticks fu was busy
system.cpu.fuPool.fu_ticks_busy::total     1642400000                       # Total ticks fu was busy
system.cpu.icache.prefetcher.num_hwpf_issued            0                       # number of hwpf issued
system.cpu.icache.prefetcher.pfBufferHit            0                       # number of redundant prefetches already in prefetch queue
system.cpu.icache.prefetcher.pfIdentified            0                       # number of prefetch candidates identified
system.cpu.icache.prefetcher.pfInCache              0                       # number of redundant prefetches already in cache/mshr dropped
system.cpu.icache.prefetcher.pfRemovedFull            0                       # number of prefetches dropped due to prefetch queue size
system.cpu.icache.prefetcher.pfSpanPage             0                       # number of prefetches that crossed the page
system.cpu.idleCycles                          149412                       # Total number of cycles that the CPU has spent unscheduled due to idling
system.cpu.iew.branchMispredicts                29133                       # Number of branch mispredicts detected at execute
system.cpu.iew.exec_branches                   372577                       # Number of branches executed
system.cpu.iew.exec_nop                             0                       # number of nop insts executed
system.cpu.iew.exec_rate                     1.510343                       # Inst execution rate
system.cpu.iew.exec_refs                       762983                       # number of memory reference insts executed
system.cpu.iew.exec_stores                     188991                       # Number of stores executed
system.cpu.iew.exec_swp                             0                       # number of swp insts executed
system.cpu.iew.iewBlockCycles                  692379                       # Number of cycles IEW is blocking
system.cpu.iew.iewDispLoadInsts                604879                       # Number of dispatched load instructions
system.cpu.iew.iewDispNonSpecInsts                931                       # Number of dispatched non-speculative instructions
system.cpu.iew.iewDispSquashedInsts               499                       # Number of squashed instructions skipped by dispatch
system.cpu.iew.iewDispStoreInsts               199471                       # Number of dispatched store instructions
system.cpu.iew.iewDispatchedInsts             4453454                       # Number of instructions dispatched to IQ
system.cpu.iew.iewExecLoadInsts                573992                       # Number of load instructions executed
system.cpu.iew.iewExecSquashedInsts             35229                       # Number of squashed instructions skipped in execute
system.cpu.iew.iewExecutedInsts               4097098                       # Number of executed instructions
system.cpu.iew.iewIQFullEvents                   3350                       # Number of times the IQ has become full, causing a stall
system.cpu.iew.iewIdleCycles                        0                       # Number of cycles IEW is idle
system.cpu.iew.iewLSQFullEvents                  7963                       # Number of times the LSQ has become full, causing a stall
system.cpu.iew.iewSquashCycles                  24739                       # Number of cycles IEW is squashing
system.cpu.iew.iewUnblockCycles                 14215                       # Number of cycles IEW is unblocking
system.cpu.iew.lsq.thread0.blockedLoads             0                       # Number of blocked loads due to partial load-store forwarding
system.cpu.iew.lsq.thread0.cacheBlocked           606                       # Number of times an access to memory failed due to the cache being blocked
system.cpu.iew.lsq.thread0.forwLoads            39420                       # Number of loads that had data forwarded from stores
system.cpu.iew.lsq.thread0.ignoredResponses          259                       # Number of memory responses ignored because the instruction is squashed
system.cpu.iew.lsq.thread0.invAddrLoads             0                       # Number of loads ignored due to an invalid address
system.cpu.iew.lsq.thread0.invAddrSwpfs             0                       # Number of software prefetches ignored due to an invalid address
system.cpu.iew.lsq.thread0.memOrderViolation           78                       # Number of memory ordering violations
system.cpu.iew.lsq.thread0.rescheduledLoads            0                       # Number of loads that were rescheduled
system.cpu.iew.lsq.thread0.squashedLoads       117211                       # Number of loads squashed
system.cpu.iew.lsq.thread0.squashedStores        29862                       # Number of stores squashed
system.cpu.iew.memOrderViolationEvents             78                       # Number of memory order violations
system.cpu.iew.predictedNotTakenIncorrect        20687                       # Number of branches that were predicted not taken incorrectly
system.cpu.iew.predictedTakenIncorrect           8446                       # Number of branches that were predicted taken incorrectly
system.cpu.iew.wb_consumers                   5750851                       # num instructions consuming a value
system.cpu.iew.wb_count                       4073984                       # cumulative count of insts written-back
system.cpu.iew.wb_fanout                     0.566562                       # average fanout of values written-back
system.cpu.iew.wb_producers                   3258215                       # num instructions producing a value
system.cpu.iew.wb_rate                       1.501823                       # insts written-back per cycle
system.cpu.iew.wb_sent                        4081376                       # cumulative count of insts sent to commit
system.cpu.int_regfile_reads                  6349411                       # number of integer regfile reads
system.cpu.int_regfile_writes                 3524772                       # number of integer regfile writes
system.cpu.ipc                               0.755768                       # IPC: Instructions Per Cycle
system.cpu.ipc_total                         0.755768                       # IPC: Total IPC of All Threads
system.cpu.iq.FU_type_0::No_OpClass             26327      0.64%      0.64% # Type of FU issued
system.cpu.iq.FU_type_0::IntAlu               3236366     78.32%     78.96% # Type of FU issued
system.cpu.iq.FU_type_0::IntMult                 1573      0.04%     78.99% # Type of FU issued
system.cpu.iq.FU_type_0::IntDiv                 41858      1.01%     80.01% # Type of FU issued
system.cpu.iq.FU_type_0::FloatAdd                4306      0.10%     80.11% # Type of FU issued
system.cpu.iq.FU_type_0::FloatCmp                   0      0.00%     80.11% # Type of FU issued
system.cpu.iq.FU_type_0::FloatCvt                1224      0.03%     80.14% # Type of FU issued
system.cpu.iq.FU_type_0::FloatMult                  0      0.00%     80.14% # Type of FU issued
system.cpu.iq.FU_type_0::FloatMultAcc               0      0.00%     80.14% # Type of FU issued
system.cpu.iq.FU_type_0::FloatDiv                   0      0.00%     80.14% # Type of FU issued
system.cpu.iq.FU_type_0::FloatMisc                  0      0.00%     80.14% # Type of FU issued
system.cpu.iq.FU_type_0::FloatSqrt                  0      0.00%     80.14% # Type of FU issued
system.cpu.iq.FU_type_0::SimdAdd                 6796      0.16%     80.30% # Type of FU issued
system.cpu.iq.FU_type_0::SimdAddAcc                 0      0.00%     80.30% # Type of FU issued
system.cpu.iq.FU_type_0::SimdAlu                14707      0.36%     80.66% # Type of FU issued
system.cpu.iq.FU_type_0::SimdCmp                    0      0.00%     80.66% # Type of FU issued
system.cpu.iq.FU_type_0::SimdCvt                13720      0.33%     80.99% # Type of FU issued
system.cpu.iq.FU_type_0::SimdMisc                7030      0.17%     81.16% # Type of FU issued
system.cpu.iq.FU_type_0::SimdMult                   0      0.00%     81.16% # Type of FU issued
system.cpu.iq.FU_type_0::SimdMultAcc                0      0.00%     81.16% # Type of FU issued
system.cpu.iq.FU_type_0::SimdShift               2025      0.05%     81.21% # Type of FU issued
system.cpu.iq.FU_type_0::SimdShiftAcc               0      0.00%     81.21% # Type of FU issued
system.cpu.iq.FU_type_0::SimdDiv                    0      0.00%     81.21% # Type of FU issued
system.cpu.iq.FU_type_0::SimdSqrt                   0      0.00%     81.21% # Type of FU issued
system.cpu.iq.FU_type_0::SimdFloatAdd               0      0.00%     81.21% # Type of FU issued
system.cpu.iq.FU_type_0::SimdFloatAlu               0      0.00%     81.21% # Type of FU issued
system.cpu.iq.FU_type_0::SimdFloatCmp               0      0.00%     81.21% # Type of FU issued
system.cpu.iq.FU_type_0::SimdFloatCvt               0      0.00%     81.21% # Type of FU issued
system.cpu.iq.FU_type_0::SimdFloatDiv               0      0.00%     81.21% # Type of FU issued
system.cpu.iq.FU_type_0::SimdFloatMisc              0      0.00%     81.21% # Type of FU issued
system.cpu.iq.FU_type_0::SimdFloatMult              0      0.00%     81.21% # Type of FU issued
system.cpu.iq.FU_type_0::SimdFloatMultAcc            0      0.00%     81.21% # Type of FU issued
system.cpu.iq.FU_type_0::SimdFloatSqrt              0      0.00%     81.21% # Type of FU issued
system.cpu.iq.FU_type_0::SimdReduceAdd              0      0.00%     81.21% # Type of FU issued
system.cpu.iq.FU_type_0::SimdReduceAlu              0      0.00%     81.21% # Type of FU issued
system.cpu.iq.FU_type_0::SimdReduceCmp              0      0.00%     81.21% # Type of FU issued
system.cpu.iq.FU_type_0::SimdFloatReduceAdd            0      0.00%     81.21% # Type of FU issued
system.cpu.iq.FU_type_0::SimdFloatReduceCmp            0      0.00%     81.21% # Type of FU issued
system.cpu.iq.FU_type_0::SimdAes                    0      0.00%     81.21% # Type of FU issued
system.cpu.iq.FU_type_0::SimdAesMix                 0      0.00%     81.21% # Type of FU issued
system.cpu.iq.FU_type_0::SimdSha1Hash               0      0.00%     81.21% # Type of FU issued
system.cpu.iq.FU_type_0::SimdSha1Hash2              0      0.00%     81.21% # Type of FU issued
system.cpu.iq.FU_type_0::SimdSha256Hash             0      0.00%     81.21% # Type of FU issued
system.cpu.iq.FU_type_0::SimdSha256Hash2            0      0.00%     81.21% # Type of FU issued
system.cpu.iq.FU_type_0::SimdShaSigma2              0      0.00%     81.21% # Type of FU issued
system.cpu.iq.FU_type_0::SimdShaSigma3              0      0.00%     81.21% # Type of FU issued
system.cpu.iq.FU_type_0::SimdPredAlu                0      0.00%     81.21% # Type of FU issued
system.cpu.iq.FU_type_0::MemRead               559891     13.55%     94.76% # Type of FU issued
system.cpu.iq.FU_type_0::MemWrite              178426      4.32%     99.08% # Type of FU issued
system.cpu.iq.FU_type_0::FloatMemRead           24778      0.60%     99.68% # Type of FU issued
system.cpu.iq.FU_type_0::FloatMemWrite          13303      0.32%    100.00% # Type of FU issued
system.cpu.iq.FU_type_0::IprAccess                  0      0.00%    100.00% # Type of FU issued
system.cpu.iq.FU_type_0::InstPrefetch               0      0.00%    100.00% # Type of FU issued
system.cpu.iq.FU_type_0::total                4132330                       # Type of FU issued
system.cpu.iq.fp_alu_accesses                   88869                       # Number of floating point alu accesses
system.cpu.iq.fp_inst_queue_reads              179047                       # Number of floating instruction queue reads
system.cpu.iq.fp_inst_queue_wakeup_accesses        85420                       # Number of floating instruction queue wakeup accesses
system.cpu.iq.fp_inst_queue_writes             127978                       # Number of floating instruction queue writes
system.cpu.iq.fu_busy_cnt                           0                       # FU busy when requested
system.cpu.iq.fu_busy_rate                          0                       # FU busy rate (busy events/executed inst)
system.cpu.iq.fu_full::No_OpClass                   0                       # attempts to use FU when none available
system.cpu.iq.fu_full::IntAlu                       0                       # attempts to use FU when none available
system.cpu.iq.fu_full::IntMult                      0                       # attempts to use FU when none available
system.cpu.iq.fu_full::IntDiv                       0                       # attempts to use FU when none available
system.cpu.iq.fu_full::FloatAdd                     0                       # attempts to use FU when none available
system.cpu.iq.fu_full::FloatCmp                     0                       # attempts to use FU when none available
system.cpu.iq.fu_full::FloatCvt                     0                       # attempts to use FU when none available
system.cpu.iq.fu_full::FloatMult                    0                       # attempts to use FU when none available
system.cpu.iq.fu_full::FloatMultAcc                 0                       # attempts to use FU when none available
system.cpu.iq.fu_full::FloatDiv                     0                       # attempts to use FU when none available
system.cpu.iq.fu_full::FloatMisc                    0                       # attempts to use FU when none available
system.cpu.iq.fu_full::FloatSqrt                    0                       # attempts to use FU when none available
system.cpu.iq.fu_full::SimdAdd                      0                       # attempts to use FU when none available
system.cpu.iq.fu_full::SimdAddAcc                   0                       # attempts to use FU when none available
system.cpu.iq.fu_full::SimdAlu                      0                       # attempts to use FU when none available
system.cpu.iq.fu_full::SimdCmp                      0                       # attempts to use FU when none available
system.cpu.iq.fu_full::SimdCvt                      0                       # attempts to use FU when none available
system.cpu.iq.fu_full::SimdMisc                     0                       # attempts to use FU when none available
system.cpu.iq.fu_full::SimdMult                     0                       # attempts to use FU when none available
system.cpu.iq.fu_full::SimdMultAcc                  0                       # attempts to use FU when none available
system.cpu.iq.fu_full::SimdShift                    0                       # attempts to use FU when none available
system.cpu.iq.fu_full::SimdShiftAcc                 0                       # attempts to use FU when none available
system.cpu.iq.fu_full::SimdDiv                      0                       # attempts to use FU when none available
system.cpu.iq.fu_full::SimdSqrt                     0                       # attempts to use FU when none available
system.cpu.iq.fu_full::SimdFloatAdd                 0                       # attempts to use FU when none available
system.cpu.iq.fu_full::SimdFloatAlu                 0                       # attempts to use FU when none available
system.cpu.iq.fu_full::SimdFloatCmp                 0                       # attempts to use FU when none available
system.cpu.iq.fu_full::SimdFloatCvt                 0                       # attempts to use FU when none available
system.cpu.iq.fu_full::SimdFloatDiv                 0                       # attempts to use FU when none available
system.cpu.iq.fu_full::SimdFloatMisc                0                       # attempts to use FU when none available
system.cpu.iq.fu_full::SimdFloatMult                0                       # attempts to use FU when none available
system.cpu.iq.fu_full::SimdFloatMultAcc             0                       # attempts to use FU when none available
system.cpu.iq.fu_full::SimdFloatSqrt                0                       # attempts to use FU when none available
system.cpu.iq.fu_full::SimdReduceAdd                0                       # attempts to use FU when none available
system.cpu.iq.fu_full::SimdReduceAlu                0                       # attempts to use FU when none available
system.cpu.iq.fu_full::SimdReduceCmp                0                       # attempts to use FU when none available
system.cpu.iq.fu_full::SimdFloatReduceAdd            0                       # attempts to use FU when none available
system.cpu.iq.fu_full::SimdFloatReduceCmp            0                       # attempts to use FU when none available
system.cpu.iq.fu_full::SimdAes                      0                       # attempts to use FU when none available
system.cpu.iq.fu_full::SimdAesMix                   0                       # attempts to use FU when none available
system.cpu.iq.fu_full::SimdSha1Hash                 0                       # attempts to use FU when none available
system.cpu.iq.fu_full::SimdSha1Hash2                0                       # attempts to use FU when none available
system.cpu.iq.fu_full::SimdSha256Hash               0                       # attempts to use FU when none available
system.cpu.iq.fu_full::SimdSha256Hash2              0                       # attempts to use FU when none available
system.cpu.iq.fu_full::SimdShaSigma2                0                       # attempts to use FU when none available
system.cpu.iq.fu_full::SimdShaSigma3                0                       # attempts to use FU when none available
system.cpu.iq.fu_full::SimdPredAlu                  0                       # attempts to use FU when none available
system.cpu.iq.fu_full::MemRead                      0                       # attempts to use FU when none available
system.cpu.iq.fu_full::MemWrite                     0                       # attempts to use FU when none available
system.cpu.iq.fu_full::FloatMemRead                 0                       # attempts to use FU when none available
system.cpu.iq.fu_full::FloatMemWrite                0                       # attempts to use FU when none available
system.cpu.iq.fu_full::IprAccess                    0                       # attempts to use FU when none available
system.cpu.iq.fu_full::InstPrefetch                 0                       # attempts to use FU when none available
system.cpu.iq.int_alu_accesses                4017134                       # Number of integer alu accesses
system.cpu.iq.int_inst_queue_reads           10667445                       # Number of integer instruction queue reads
system.cpu.iq.int_inst_queue_wakeup_accesses      3988564                       # Number of integer instruction queue wakeup accesses
system.cpu.iq.int_inst_queue_writes           5217678                       # Number of integer instruction queue writes
system.cpu.iq.iqInstsAdded                    4452326                       # Number of instructions added to the IQ (excludes non-spec)
system.cpu.iq.iqInstsIssued                   4132330                       # Number of instructions issued
system.cpu.iq.iqNonSpecInstsAdded                1128                       # Number of non-speculative instructions added to the IQ
system.cpu.iq.iqSquashedInstsExamined          892125                       # Number of squashed instructions iterated over during squash; mainly for profiling
system.cpu.iq.iqSquashedInstsIssued             18554                       # Number of squashed instructions issued
system.cpu.iq.iqSquashedNonSpecRemoved            396                       # Number of squashed non-spec instructions that were removed
system.cpu.iq.iqSquashedOperandsExamined      1334867                       # Number of squashed operands that are examined and possibly removed from graph
system.cpu.iq.issued_per_cycle::samples       2563281                       # Number of insts issued each cycle
system.cpu.iq.issued_per_cycle::mean         1.612125                       # Number of insts issued each cycle
system.cpu.iq.issued_per_cycle::stdev        1.669437                       # Number of insts issued each cycle
system.cpu.iq.issued_per_cycle::underflows            0      0.00%      0.00% # Number of insts issued each cycle
system.cpu.iq.issued_per_cycle::0             1167107     45.53%     45.53% # Number of insts issued each cycle
system.cpu.iq.issued_per_cycle::1              173069      6.75%     52.28% # Number of insts issued each cycle
system.cpu.iq.issued_per_cycle::2              297556     11.61%     63.89% # Number of insts issued each cycle
system.cpu.iq.issued_per_cycle::3              338047     13.19%     77.08% # Number of insts issued each cycle
system.cpu.iq.issued_per_cycle::4              587502     22.92%    100.00% # Number of insts issued each cycle
system.cpu.iq.issued_per_cycle::overflows            0      0.00%    100.00% # Number of insts issued each cycle
system.cpu.iq.issued_per_cycle::min_value            0                       # Number of insts issued each cycle
system.cpu.iq.issued_per_cycle::max_value            4                       # Number of insts issued each cycle
system.cpu.iq.issued_per_cycle::total         2563281                       # Number of insts issued each cycle
system.cpu.iq.rate                           1.523331                       # Inst issue rate
system.cpu.iq.vec_alu_accesses                      0                       # Number of vector alu accesses
system.cpu.iq.vec_inst_queue_reads                  0                       # Number of vector instruction queue reads
system.cpu.iq.vec_inst_queue_wakeup_accesses            0                       # Number of vector instruction queue wakeup accesses
system.cpu.iq.vec_inst_queue_writes                 0                       # Number of vector instruction queue writes
system.cpu.itb.rdAccesses                           0                       # TLB accesses on read requests
system.cpu.itb.rdMisses                             0                       # TLB misses on read requests
system.cpu.itb.wrAccesses                      241015                       # TLB accesses on write requests
system.cpu.itb.wrMisses                           312                       # TLB misses on write requests
system.cpu.memDep0.conflictingLoads             12785                       # Number of conflicting loads.
system.cpu.memDep0.conflictingStores             4179                       # Number of conflicting stores.
system.cpu.memDep0.insertedLoads               604879                       # Number of loads inserted to the mem dependence unit.
system.cpu.memDep0.insertedStores              199471                       # Number of stores inserted to the mem dependence unit.
system.cpu.misc_regfile_reads                 1544489                       # number of misc regfile reads
system.cpu.misc_regfile_writes                    675                       # number of misc regfile writes
system.cpu.numCycles                          2712693                       # number of cpu cycles simulated
system.cpu.numWorkItemsCompleted                    0                       # number of work items this cpu completed
system.cpu.numWorkItemsStarted                      0                       # number of work items this cpu started
system.cpu.process.numSyscalls                     56                       # Number of system calls
system.cpu.rename.BlockCycles                  840738                       # Number of cycles rename is blocking
system.cpu.rename.CommittedMaps               4888838                       # Number of HB maps that are committed
system.cpu.rename.FullRegisterEvents              274                       # Number of times there has been no free registers
system.cpu.rename.IQFullEvents                  47370                       # Number of times rename has blocked due to IQ full
system.cpu.rename.IdleCycles                   341348                       # Number of cycles rename is idle
system.cpu.rename.LQFullEvents                  14446                       # Number of times rename has blocked due to LQ full
system.cpu.rename.ROBFullEvents                  4887                       # Number of times rename has blocked due to ROB full
system.cpu.rename.RenameLookups              12019377                       # Number of register rename lookups that rename has made
system.cpu.rename.RenamedInsts                4597591                       # Number of instructions processed by rename
system.cpu.rename.RenamedOperands             6296099                       # Number of destination operands rename has renamed
system.cpu.rename.RunCycles                   1163360                       # Number of cycles rename is running
system.cpu.rename.SQFullEvents                  74815                       # Number of times rename has blocked due to SQ full
system.cpu.rename.SquashCycles                  24739                       # Number of cycles rename is squashing
system.cpu.rename.UnblockCycles                173786                       # Number of cycles rename is unblocking
system.cpu.rename.UndoneMaps                  1407238                       # Number of HB maps that are undone due to squashing
system.cpu.rename.fp_rename_lookups            151859                       # Number of floating rename lookups
system.cpu.rename.int_rename_lookups          7307945                       # Number of integer rename lookups
system.cpu.rename.serializeStallCycles          19310                       # count of cycles rename stalled for serializing inst
system.cpu.rename.serializingInsts                865                       # count of serializing insts renamed
system.cpu.rename.skidInsts                    207916                       # count of insts added to the skid buffer
system.cpu.rename.tempSerializingInsts            910                       # count of temporary serializing insts renamed
system.cpu.rob.rob_reads                      6182241                       # The number of ROB reads
system.cpu.rob.rob_writes                     9151648                       # The number of ROB writes
system.cpu.timesIdled                            1475                       # Number of times that the entire CPU went into an idle state and unscheduled itself
system.l2bus.snoop_filter.hit_multi_requests            9                       # Number of requests hitting in the snoop filter with multiple (>1) holders of the requested data.
system.l2bus.snoop_filter.hit_multi_snoops            0                       # Number of snoops hitting in the snoop filter with multiple (>1) holders of the requested data.
system.l2bus.snoop_filter.hit_single_requests        18221                       # Number of requests hitting in the snoop filter with a single holder of the requested data.
system.l2bus.snoop_filter.hit_single_snoops          413                       # Number of snoops hitting in the snoop filter with a single holder of the requested data.
system.l2bus.snoop_filter.tot_requests          37722                       # Total number of requests made to the snoop filter.
system.l2bus.snoop_filter.tot_snoops              413                       # Total number of snoops made to the snoop filter.
system.l2cache.prefetcher.num_hwpf_issued          695                       # number of hwpf issued
system.l2cache.prefetcher.pfBufferHit               0                       # number of redundant prefetches already in prefetch queue
system.l2cache.prefetcher.pfIdentified            695                       # number of prefetch candidates identified
system.l2cache.prefetcher.pfInCache                 0                       # number of redundant prefetches already in cache/mshr dropped
system.l2cache.prefetcher.pfRemovedFull             0                       # number of prefetches dropped due to prefetch queue size
system.l2cache.prefetcher.pfSpanPage              101                       # number of prefetches that crossed the page
system.membus.snoop_filter.hit_multi_requests            0                       # Number of requests hitting in the snoop filter with multiple (>1) holders of the requested data.
system.membus.snoop_filter.hit_multi_snoops            0                       # Number of snoops hitting in the snoop filter with multiple (>1) holders of the requested data.
system.membus.snoop_filter.hit_single_requests         9238                       # Number of requests hitting in the snoop filter with a single holder of the requested data.
system.membus.snoop_filter.hit_single_snoops            0                       # Number of snoops hitting in the snoop filter with a single holder of the requested data.
system.membus.snoop_filter.tot_requests         22596                       # Total number of requests made to the snoop filter.
system.membus.snoop_filter.tot_snoops               0                       # Total number of snoops made to the snoop filter.
system.membus.pwrStateResidencyTicks::UNDEFINED   1085076800                       # Cumulative time (in ticks) in various power states
system.membus.trans_dist::ReadResp              12015                       # Transaction distribution
system.membus.trans_dist::WritebackDirty         1332                       # Transaction distribution
system.membus.trans_dist::CleanEvict             7906                       # Transaction distribution
system.membus.trans_dist::ReadExReq              1343                       # Transaction distribution
system.membus.trans_dist::ReadExResp             1343                       # Transaction distribution
system.membus.trans_dist::ReadSharedReq         12015                       # Transaction distribution
system.membus.pkt_count_system.l2cache.mem_side::system.mem_ctrl.port        35954                       # Packet count per connected master and slave (bytes)
system.membus.pkt_count_system.l2cache.mem_side::total        35954                       # Packet count per connected master and slave (bytes)
system.membus.pkt_count::total                  35954                       # Packet count per connected master and slave (bytes)
system.membus.pkt_size_system.l2cache.mem_side::system.mem_ctrl.port       940160                       # Cumulative packet size per connected master and slave (bytes)
system.membus.pkt_size_system.l2cache.mem_side::total       940160                       # Cumulative packet size per connected master and slave (bytes)
system.membus.pkt_size::total                  940160                       # Cumulative packet size per connected master and slave (bytes)
system.membus.snoops                                0                       # Total snoops (count)
system.membus.snoopTraffic                          0                       # Total snoop traffic (bytes)
system.membus.snoop_fanout::samples             13358                       # Request fanout histogram
system.membus.snoop_fanout::mean                    0                       # Request fanout histogram
system.membus.snoop_fanout::stdev                   0                       # Request fanout histogram
system.membus.snoop_fanout::underflows              0      0.00%      0.00% # Request fanout histogram
system.membus.snoop_fanout::0                   13358    100.00%    100.00% # Request fanout histogram
system.membus.snoop_fanout::1                       0      0.00%    100.00% # Request fanout histogram
system.membus.snoop_fanout::overflows               0      0.00%    100.00% # Request fanout histogram
system.membus.snoop_fanout::min_value               0                       # Request fanout histogram
system.membus.snoop_fanout::max_value               0                       # Request fanout histogram
system.membus.snoop_fanout::total               13358                       # Request fanout histogram
system.membus.reqLayer2.occupancy            11196446                       # Layer occupancy (ticks)
system.membus.reqLayer2.utilization               1.0                       # Layer utilization (%)
system.membus.respLayer0.occupancy           28993154                       # Layer occupancy (ticks)
system.membus.respLayer0.utilization              2.7                       # Layer utilization (%)
system.l2bus.pwrStateResidencyTicks::UNDEFINED   1085076800                       # Cumulative time (in ticks) in various power states
system.l2bus.trans_dist::ReadResp               17430                       # Transaction distribution
system.l2bus.trans_dist::WritebackDirty          4093                       # Transaction distribution
system.l2bus.trans_dist::CleanEvict             23447                       # Transaction distribution
system.l2bus.trans_dist::HardPFReq                942                       # Transaction distribution
system.l2bus.trans_dist::ReadExReq               2071                       # Transaction distribution
system.l2bus.trans_dist::ReadExResp              2071                       # Transaction distribution
system.l2bus.trans_dist::ReadSharedReq          17430                       # Transaction distribution
system.l2bus.pkt_count_system.cpu.icache.mem_side::system.l2cache.cpu_side         7557                       # Packet count per connected master and slave (bytes)
system.l2bus.pkt_count_system.cpu.dcache.mem_side::system.l2cache.cpu_side        49664                       # Packet count per connected master and slave (bytes)
system.l2bus.pkt_count::total                   57221                       # Packet count per connected master and slave (bytes)
system.l2bus.pkt_size_system.cpu.icache.mem_side::system.l2cache.cpu_side       166592                       # Cumulative packet size per connected master and slave (bytes)
system.l2bus.pkt_size_system.cpu.dcache.mem_side::system.l2cache.cpu_side      1258048                       # Cumulative packet size per connected master and slave (bytes)
system.l2bus.pkt_size::total                  1424640                       # Cumulative packet size per connected master and slave (bytes)
system.l2bus.snoops                             10263                       # Total snoops (count)
system.l2bus.snoopTraffic                       85376                       # Total snoop traffic (bytes)
system.l2bus.snoop_fanout::samples              29762                       # Request fanout histogram
system.l2bus.snoop_fanout::mean              0.014179                       # Request fanout histogram
system.l2bus.snoop_fanout::stdev             0.118231                       # Request fanout histogram
system.l2bus.snoop_fanout::underflows               0      0.00%      0.00% # Request fanout histogram
system.l2bus.snoop_fanout::0                    29340     98.58%     98.58% # Request fanout histogram
system.l2bus.snoop_fanout::1                      422      1.42%    100.00% # Request fanout histogram
system.l2bus.snoop_fanout::2                        0      0.00%    100.00% # Request fanout histogram
system.l2bus.snoop_fanout::overflows                0      0.00%    100.00% # Request fanout histogram
system.l2bus.snoop_fanout::min_value                0                       # Request fanout histogram
system.l2bus.snoop_fanout::max_value                1                       # Request fanout histogram
system.l2bus.snoop_fanout::total                29762                       # Request fanout histogram
system.l2bus.respLayer1.occupancy            20275599                       # Layer occupancy (ticks)
system.l2bus.respLayer1.utilization               1.9                       # Layer utilization (%)
system.l2bus.reqLayer0.occupancy             18698793                       # Layer occupancy (ticks)
system.l2bus.reqLayer0.utilization                1.7                       # Layer utilization (%)
system.l2bus.respLayer0.occupancy             3126000                       # Layer occupancy (ticks)
system.l2bus.respLayer0.utilization               0.3                       # Layer utilization (%)
system.clk_domain.clock                           400                       # Clock period in ticks
system.clk_domain.voltage_domain.voltage            1                       # Voltage in Volts
system.cpu.pwrStateResidencyTicks::ON      1085076800                       # Cumulative time (in ticks) in various power states
system.cpu.icache.pwrStateResidencyTicks::UNDEFINED   1085076800                       # Cumulative time (in ticks) in various power states
system.cpu.icache.demand_hits::.cpu.inst       237665                       # number of demand (read+write) hits
system.cpu.icache.demand_hits::total           237665                       # number of demand (read+write) hits
system.cpu.icache.overall_hits::.cpu.inst       237665                       # number of overall hits
system.cpu.icache.overall_hits::total          237665                       # number of overall hits
system.cpu.icache.demand_misses::.cpu.inst         3274                       # number of demand (read+write) misses
system.cpu.icache.demand_misses::total           3274                       # number of demand (read+write) misses
system.cpu.icache.overall_misses::.cpu.inst         3274                       # number of overall misses
system.cpu.icache.overall_misses::total          3274                       # number of overall misses
system.cpu.icache.demand_miss_latency::.cpu.inst    165563600                       # number of demand (read+write) miss cycles
system.cpu.icache.demand_miss_latency::total    165563600                       # number of demand (read+write) miss cycles
system.cpu.icache.overall_miss_latency::.cpu.inst    165563600                       # number of overall miss cycles
system.cpu.icache.overall_miss_latency::total    165563600                       # number of overall miss cycles
system.cpu.icache.demand_accesses::.cpu.inst       240939                       # number of demand (read+write) accesses
system.cpu.icache.demand_accesses::total       240939                       # number of demand (read+write) accesses
system.cpu.icache.overall_accesses::.cpu.inst       240939                       # number of overall (read+write) accesses
system.cpu.icache.overall_accesses::total       240939                       # number of overall (read+write) accesses
system.cpu.icache.demand_miss_rate::.cpu.inst     0.013589                       # miss rate for demand accesses
system.cpu.icache.demand_miss_rate::total     0.013589                       # miss rate for demand accesses
system.cpu.icache.overall_miss_rate::.cpu.inst     0.013589                       # miss rate for overall accesses
system.cpu.icache.overall_miss_rate::total     0.013589                       # miss rate for overall accesses
system.cpu.icache.demand_avg_miss_latency::.cpu.inst 50569.211973                       # average overall miss latency
system.cpu.icache.demand_avg_miss_latency::total 50569.211973                       # average overall miss latency
system.cpu.icache.overall_avg_miss_latency::.cpu.inst 50569.211973                       # average overall miss latency
system.cpu.icache.overall_avg_miss_latency::total 50569.211973                       # average overall miss latency
system.cpu.icache.blocked_cycles::no_mshrs           39                       # number of cycles access was blocked
system.cpu.icache.blocked_cycles::no_targets            0                       # number of cycles access was blocked
system.cpu.icache.blocked::no_mshrs                 2                       # number of cycles access was blocked
system.cpu.icache.blocked::no_targets               0                       # number of cycles access was blocked
system.cpu.icache.avg_blocked_cycles::no_mshrs    19.500000                       # average number of cycles each access was blocked
system.cpu.icache.avg_blocked_cycles::no_targets          nan                       # average number of cycles each access was blocked
system.cpu.icache.demand_mshr_hits::.cpu.inst          669                       # number of demand (read+write) MSHR hits
system.cpu.icache.demand_mshr_hits::total          669                       # number of demand (read+write) MSHR hits
system.cpu.icache.overall_mshr_hits::.cpu.inst          669                       # number of overall MSHR hits
system.cpu.icache.overall_mshr_hits::total          669                       # number of overall MSHR hits
system.cpu.icache.demand_mshr_misses::.cpu.inst         2605                       # number of demand (read+write) MSHR misses
system.cpu.icache.demand_mshr_misses::total         2605                       # number of demand (read+write) MSHR misses
system.cpu.icache.overall_mshr_misses::.cpu.inst         2605                       # number of overall MSHR misses
system.cpu.icache.overall_mshr_misses::total         2605                       # number of overall MSHR misses
system.cpu.icache.demand_mshr_miss_latency::.cpu.inst    132323600                       # number of demand (read+write) MSHR miss cycles
system.cpu.icache.demand_mshr_miss_latency::total    132323600                       # number of demand (read+write) MSHR miss cycles
system.cpu.icache.overall_mshr_miss_latency::.cpu.inst    132323600                       # number of overall MSHR miss cycles
system.cpu.icache.overall_mshr_miss_latency::total    132323600                       # number of overall MSHR miss cycles
system.cpu.icache.demand_mshr_miss_rate::.cpu.inst     0.010812                       # mshr miss rate for demand accesses
system.cpu.icache.demand_mshr_miss_rate::total     0.010812                       # mshr miss rate for demand accesses
system.cpu.icache.overall_mshr_miss_rate::.cpu.inst     0.010812                       # mshr miss rate for overall accesses
system.cpu.icache.overall_mshr_miss_rate::total     0.010812                       # mshr miss rate for overall accesses
system.cpu.icache.demand_avg_mshr_miss_latency::.cpu.inst 50796.007678                       # average overall mshr miss latency
system.cpu.icache.demand_avg_mshr_miss_latency::total 50796.007678                       # average overall mshr miss latency
system.cpu.icache.overall_avg_mshr_miss_latency::.cpu.inst 50796.007678                       # average overall mshr miss latency
system.cpu.icache.overall_avg_mshr_miss_latency::total 50796.007678                       # average overall mshr miss latency
system.cpu.icache.replacements                   2349                       # number of replacements
system.cpu.icache.ReadReq_hits::.cpu.inst       237665                       # number of ReadReq hits
system.cpu.icache.ReadReq_hits::total          237665                       # number of ReadReq hits
system.cpu.icache.ReadReq_misses::.cpu.inst         3274                       # number of ReadReq misses
system.cpu.icache.ReadReq_misses::total          3274                       # number of ReadReq misses
system.cpu.icache.ReadReq_miss_latency::.cpu.inst    165563600                       # number of ReadReq miss cycles
system.cpu.icache.ReadReq_miss_latency::total    165563600                       # number of ReadReq miss cycles
system.cpu.icache.ReadReq_accesses::.cpu.inst       240939                       # number of ReadReq accesses(hits+misses)
system.cpu.icache.ReadReq_accesses::total       240939                       # number of ReadReq accesses(hits+misses)
system.cpu.icache.ReadReq_miss_rate::.cpu.inst     0.013589                       # miss rate for ReadReq accesses
system.cpu.icache.ReadReq_miss_rate::total     0.013589                       # miss rate for ReadReq accesses
system.cpu.icache.ReadReq_avg_miss_latency::.cpu.inst 50569.211973                       # average ReadReq miss latency
system.cpu.icache.ReadReq_avg_miss_latency::total 50569.211973                       # average ReadReq miss latency
system.cpu.icache.ReadReq_mshr_hits::.cpu.inst          669                       # number of ReadReq MSHR hits
system.cpu.icache.ReadReq_mshr_hits::total          669                       # number of ReadReq MSHR hits
system.cpu.icache.ReadReq_mshr_misses::.cpu.inst         2605                       # number of ReadReq MSHR misses
system.cpu.icache.ReadReq_mshr_misses::total         2605                       # number of ReadReq MSHR misses
system.cpu.icache.ReadReq_mshr_miss_latency::.cpu.inst    132323600                       # number of ReadReq MSHR miss cycles
system.cpu.icache.ReadReq_mshr_miss_latency::total    132323600                       # number of ReadReq MSHR miss cycles
system.cpu.icache.ReadReq_mshr_miss_rate::.cpu.inst     0.010812                       # mshr miss rate for ReadReq accesses
system.cpu.icache.ReadReq_mshr_miss_rate::total     0.010812                       # mshr miss rate for ReadReq accesses
system.cpu.icache.ReadReq_avg_mshr_miss_latency::.cpu.inst 50796.007678                       # average ReadReq mshr miss latency
system.cpu.icache.ReadReq_avg_mshr_miss_latency::total 50796.007678                       # average ReadReq mshr miss latency
system.cpu.icache.prefetcher.pwrStateResidencyTicks::UNDEFINED   1085076800                       # Cumulative time (in ticks) in various power states
system.cpu.icache.tags.pwrStateResidencyTicks::UNDEFINED   1085076800                       # Cumulative time (in ticks) in various power states
system.cpu.icache.tags.tagsinuse           253.446794                       # Cycle average of tags in use
system.cpu.icache.tags.total_refs              205778                       # Total number of references to valid blocks.
system.cpu.icache.tags.sampled_refs              2349                       # Sample count of references to valid blocks.
system.cpu.icache.tags.avg_refs             87.602384                       # Average number of references to valid blocks.
system.cpu.icache.tags.warmup_cycle             66400                       # Cycle when the warmup percentage was hit.
system.cpu.icache.tags.occ_blocks::.cpu.inst   253.446794                       # Average occupied blocks per requestor
system.cpu.icache.tags.occ_percent::.cpu.inst     0.990027                       # Average percentage of cache occupancy
system.cpu.icache.tags.occ_percent::total     0.990027                       # Average percentage of cache occupancy
system.cpu.icache.tags.occ_task_id_blocks::1024          256                       # Occupied blocks per task id
system.cpu.icache.tags.age_task_id_blocks_1024::0           77                       # Occupied blocks per task id
system.cpu.icache.tags.age_task_id_blocks_1024::1          155                       # Occupied blocks per task id
system.cpu.icache.tags.age_task_id_blocks_1024::2           24                       # Occupied blocks per task id
system.cpu.icache.tags.occ_task_id_percent::1024            1                       # Percentage of cache occupancy per task id
system.cpu.icache.tags.tag_accesses            484483                       # Number of tag accesses
system.cpu.icache.tags.data_accesses           484483                       # Number of data accesses
system.cpu.dtb.walker.pwrStateResidencyTicks::UNDEFINED   1085076800                       # Cumulative time (in ticks) in various power states
system.cpu.interrupts.clk_domain.clock           6400                       # Clock period in ticks
system.cpu.itb.walker.pwrStateResidencyTicks::UNDEFINED   1085076800                       # Cumulative time (in ticks) in various power states
system.cpu.dcache.pwrStateResidencyTicks::UNDEFINED   1085076800                       # Cumulative time (in ticks) in various power states
system.cpu.dcache.demand_hits::.cpu.data       665985                       # number of demand (read+write) hits
system.cpu.dcache.demand_hits::total           665985                       # number of demand (read+write) hits
system.cpu.dcache.overall_hits::.cpu.data       665985                       # number of overall hits
system.cpu.dcache.overall_hits::total          665985                       # number of overall hits
system.cpu.dcache.demand_misses::.cpu.data        35128                       # number of demand (read+write) misses
system.cpu.dcache.demand_misses::total          35128                       # number of demand (read+write) misses
system.cpu.dcache.overall_misses::.cpu.data        35128                       # number of overall misses
system.cpu.dcache.overall_misses::total         35128                       # number of overall misses
system.cpu.dcache.demand_miss_latency::.cpu.data   1709184800                       # number of demand (read+write) miss cycles
system.cpu.dcache.demand_miss_latency::total   1709184800                       # number of demand (read+write) miss cycles
system.cpu.dcache.overall_miss_latency::.cpu.data   1709184800                       # number of overall miss cycles
system.cpu.dcache.overall_miss_latency::total   1709184800                       # number of overall miss cycles
system.cpu.dcache.demand_accesses::.cpu.data       701113                       # number of demand (read+write) accesses
system.cpu.dcache.demand_accesses::total       701113                       # number of demand (read+write) accesses
system.cpu.dcache.overall_accesses::.cpu.data       701113                       # number of overall (read+write) accesses
system.cpu.dcache.overall_accesses::total       701113                       # number of overall (read+write) accesses
system.cpu.dcache.demand_miss_rate::.cpu.data     0.050103                       # miss rate for demand accesses
system.cpu.dcache.demand_miss_rate::total     0.050103                       # miss rate for demand accesses
system.cpu.dcache.overall_miss_rate::.cpu.data     0.050103                       # miss rate for overall accesses
system.cpu.dcache.overall_miss_rate::total     0.050103                       # miss rate for overall accesses
system.cpu.dcache.demand_avg_miss_latency::.cpu.data 48655.909816                       # average overall miss latency
system.cpu.dcache.demand_avg_miss_latency::total 48655.909816                       # average overall miss latency
system.cpu.dcache.overall_avg_miss_latency::.cpu.data 48655.909816                       # average overall miss latency
system.cpu.dcache.overall_avg_miss_latency::total 48655.909816                       # average overall miss latency
system.cpu.dcache.blocked_cycles::no_mshrs        29734                       # number of cycles access was blocked
system.cpu.dcache.blocked_cycles::no_targets          178                       # number of cycles access was blocked
system.cpu.dcache.blocked::no_mshrs               749                       # number of cycles access was blocked
system.cpu.dcache.blocked::no_targets               3                       # number of cycles access was blocked
system.cpu.dcache.avg_blocked_cycles::no_mshrs    39.698264                       # average number of cycles each access was blocked
system.cpu.dcache.avg_blocked_cycles::no_targets    59.333333                       # average number of cycles each access was blocked
system.cpu.dcache.unused_prefetches              1816                       # number of HardPF blocks evicted w/o reference
system.cpu.dcache.writebacks::.writebacks         2761                       # number of writebacks
system.cpu.dcache.writebacks::total              2761                       # number of writebacks
system.cpu.dcache.demand_mshr_hits::.cpu.data        22501                       # number of demand (read+write) MSHR hits
system.cpu.dcache.demand_mshr_hits::total        22501                       # number of demand (read+write) MSHR hits
system.cpu.dcache.overall_mshr_hits::.cpu.data        22501                       # number of overall MSHR hits
system.cpu.dcache.overall_mshr_hits::total        22501                       # number of overall MSHR hits
system.cpu.dcache.demand_mshr_misses::.cpu.data        12627                       # number of demand (read+write) MSHR misses
system.cpu.dcache.demand_mshr_misses::total        12627                       # number of demand (read+write) MSHR misses
system.cpu.dcache.overall_mshr_misses::.cpu.data        12627                       # number of overall MSHR misses
system.cpu.dcache.overall_mshr_misses::.cpu.dcache.prefetcher         4269                       # number of overall MSHR misses
system.cpu.dcache.overall_mshr_misses::total        16896                       # number of overall MSHR misses
system.cpu.dcache.demand_mshr_miss_latency::.cpu.data    580553600                       # number of demand (read+write) MSHR miss cycles
system.cpu.dcache.demand_mshr_miss_latency::total    580553600                       # number of demand (read+write) MSHR miss cycles
system.cpu.dcache.overall_mshr_miss_latency::.cpu.data    580553600                       # number of overall MSHR miss cycles
system.cpu.dcache.overall_mshr_miss_latency::.cpu.dcache.prefetcher    244107886                       # number of overall MSHR miss cycles
system.cpu.dcache.overall_mshr_miss_latency::total    824661486                       # number of overall MSHR miss cycles
system.cpu.dcache.demand_mshr_miss_rate::.cpu.data     0.018010                       # mshr miss rate for demand accesses
system.cpu.dcache.demand_mshr_miss_rate::total     0.018010                       # mshr miss rate for demand accesses
system.cpu.dcache.overall_mshr_miss_rate::.cpu.data     0.018010                       # mshr miss rate for overall accesses
system.cpu.dcache.overall_mshr_miss_rate::.cpu.dcache.prefetcher          inf                       # mshr miss rate for overall accesses
system.cpu.dcache.overall_mshr_miss_rate::total     0.024099                       # mshr miss rate for overall accesses
system.cpu.dcache.demand_avg_mshr_miss_latency::.cpu.data 45977.160054                       # average overall mshr miss latency
system.cpu.dcache.demand_avg_mshr_miss_latency::total 45977.160054                       # average overall mshr miss latency
system.cpu.dcache.overall_avg_mshr_miss_latency::.cpu.data 45977.160054                       # average overall mshr miss latency
system.cpu.dcache.overall_avg_mshr_miss_latency::.cpu.dcache.prefetcher 57181.514640                       # average overall mshr miss latency
system.cpu.dcache.overall_avg_mshr_miss_latency::total 48808.089844                       # average overall mshr miss latency
system.cpu.dcache.replacements                  15872                       # number of replacements
system.cpu.dcache.ReadReq_hits::.cpu.data       498482                       # number of ReadReq hits
system.cpu.dcache.ReadReq_hits::total          498482                       # number of ReadReq hits
system.cpu.dcache.ReadReq_misses::.cpu.data        33017                       # number of ReadReq misses
system.cpu.dcache.ReadReq_misses::total         33017                       # number of ReadReq misses
system.cpu.dcache.ReadReq_miss_latency::.cpu.data   1604349200                       # number of ReadReq miss cycles
system.cpu.dcache.ReadReq_miss_latency::total   1604349200                       # number of ReadReq miss cycles
system.cpu.dcache.ReadReq_accesses::.cpu.data       531499                       # number of ReadReq accesses(hits+misses)
system.cpu.dcache.ReadReq_accesses::total       531499                       # number of ReadReq accesses(hits+misses)
system.cpu.dcache.ReadReq_miss_rate::.cpu.data     0.062121                       # miss rate for ReadReq accesses
system.cpu.dcache.ReadReq_miss_rate::total     0.062121                       # miss rate for ReadReq accesses
system.cpu.dcache.ReadReq_avg_miss_latency::.cpu.data 48591.610383                       # average ReadReq miss latency
system.cpu.dcache.ReadReq_avg_miss_latency::total 48591.610383                       # average ReadReq miss latency
system.cpu.dcache.ReadReq_mshr_hits::.cpu.data        22461                       # number of ReadReq MSHR hits
system.cpu.dcache.ReadReq_mshr_hits::total        22461                       # number of ReadReq MSHR hits
system.cpu.dcache.ReadReq_mshr_misses::.cpu.data        10556                       # number of ReadReq MSHR misses
system.cpu.dcache.ReadReq_mshr_misses::total        10556                       # number of ReadReq MSHR misses
system.cpu.dcache.ReadReq_mshr_miss_latency::.cpu.data    478704400                       # number of ReadReq MSHR miss cycles
system.cpu.dcache.ReadReq_mshr_miss_latency::total    478704400                       # number of ReadReq MSHR miss cycles
system.cpu.dcache.ReadReq_mshr_miss_rate::.cpu.data     0.019861                       # mshr miss rate for ReadReq accesses
system.cpu.dcache.ReadReq_mshr_miss_rate::total     0.019861                       # mshr miss rate for ReadReq accesses
system.cpu.dcache.ReadReq_avg_mshr_miss_latency::.cpu.data 45349.033725                       # average ReadReq mshr miss latency
system.cpu.dcache.ReadReq_avg_mshr_miss_latency::total 45349.033725                       # average ReadReq mshr miss latency
system.cpu.dcache.WriteReq_hits::.cpu.data       167503                       # number of WriteReq hits
system.cpu.dcache.WriteReq_hits::total         167503                       # number of WriteReq hits
system.cpu.dcache.WriteReq_misses::.cpu.data         2111                       # number of WriteReq misses
system.cpu.dcache.WriteReq_misses::total         2111                       # number of WriteReq misses
system.cpu.dcache.WriteReq_miss_latency::.cpu.data    104835600                       # number of WriteReq miss cycles
system.cpu.dcache.WriteReq_miss_latency::total    104835600                       # number of WriteReq miss cycles
system.cpu.dcache.WriteReq_accesses::.cpu.data       169614                       # number of WriteReq accesses(hits+misses)
system.cpu.dcache.WriteReq_accesses::total       169614                       # number of WriteReq accesses(hits+misses)
system.cpu.dcache.WriteReq_miss_rate::.cpu.data     0.012446                       # miss rate for WriteReq accesses
system.cpu.dcache.WriteReq_miss_rate::total     0.012446                       # miss rate for WriteReq accesses
system.cpu.dcache.WriteReq_avg_miss_latency::.cpu.data 49661.582189                       # average WriteReq miss latency
system.cpu.dcache.WriteReq_avg_miss_latency::total 49661.582189                       # average WriteReq miss latency
system.cpu.dcache.WriteReq_mshr_hits::.cpu.data           40                       # number of WriteReq MSHR hits
system.cpu.dcache.WriteReq_mshr_hits::total           40                       # number of WriteReq MSHR hits
system.cpu.dcache.WriteReq_mshr_misses::.cpu.data         2071                       # number of WriteReq MSHR misses
system.cpu.dcache.WriteReq_mshr_misses::total         2071                       # number of WriteReq MSHR misses
system.cpu.dcache.WriteReq_mshr_miss_latency::.cpu.data    101849200                       # number of WriteReq MSHR miss cycles
system.cpu.dcache.WriteReq_mshr_miss_latency::total    101849200                       # number of WriteReq MSHR miss cycles
[...]
system.l2cache.overall_mshr_misses::.cpu.dcache.prefetcher           47                       # number of overall MSHR misses
system.l2cache.overall_mshr_misses::total          624                       # number of overall MSHR misses
system.l2cache.demand_mshr_miss_latency::.cpu.inst     24239200                       # number of demand (read+write) MSHR miss cycles
system.l2cache.demand_mshr_miss_latency::.cpu.data     10364400                       # number of demand (read+write) MSHR miss cycles
system.l2cache.demand_mshr_miss_latency::.cpu.dcache.prefetcher      2937552                       # number of demand (read+write) MSHR miss cycles
system.l2cache.demand_mshr_miss_latency::total     37541152                       # number of demand (read+write) MSHR miss cycles
system.l2cache.overall_mshr_miss_latency::.cpu.inst     24239200                       # number of overall MSHR miss cycles
system.l2cache.overall_mshr_miss_latency::.cpu.data     10364400                       # number of overall MSHR miss cycles
system.l2cache.overall_mshr_miss_latency::.cpu.dcache.prefetcher      2937552                       # number of overall MSHR miss cycles
system.l2cache.overall_mshr_miss_latency::total     37541152                       # number of overall MSHR miss cycles
system.l2cache.demand_mshr_miss_rate::.cpu.inst     0.376164                       # mshr miss rate for demand accesses
system.l2cache.demand_mshr_miss_rate::.cpu.data     0.521084                       # mshr miss rate for demand accesses
system.l2cache.demand_mshr_miss_rate::.cpu.dcache.prefetcher     0.903846                       # mshr miss rate for demand accesses
system.l2cache.demand_mshr_miss_rate::total     0.427984                       # mshr miss rate for demand accesses
system.l2cache.overall_mshr_miss_rate::.cpu.inst     0.376164                       # mshr miss rate for overall accesses
system.l2cache.overall_mshr_miss_rate::.cpu.data     0.521084                       # mshr miss rate for overall accesses
system.l2cache.overall_mshr_miss_rate::.cpu.dcache.prefetcher     0.903846                       # mshr miss rate for overall accesses
system.l2cache.overall_mshr_miss_rate::total     0.427984                       # mshr miss rate for overall accesses
system.l2cache.demand_avg_mshr_miss_latency::.cpu.inst 59998.019802                       # average overall mshr miss latency
system.l2cache.demand_avg_mshr_miss_latency::.cpu.data 59909.826590                       # average overall mshr miss latency
system.l2cache.demand_avg_mshr_miss_latency::.cpu.dcache.prefetcher 62501.106383                       # average overall mshr miss latency
system.l2cache.demand_avg_mshr_miss_latency::total 60162.102564                       # average overall mshr miss latency
system.l2cache.overall_avg_mshr_miss_latency::.cpu.inst 59998.019802                       # average overall mshr miss latency
system.l2cache.overall_avg_mshr_miss_latency::.cpu.data 59909.826590                       # average overall mshr miss latency
system.l2cache.overall_avg_mshr_miss_latency::.cpu.dcache.prefetcher 62501.106383                       # average overall mshr miss latency
system.l2cache.overall_avg_mshr_miss_latency::total 60162.102564                       # average overall mshr miss latency
system.l2cache.replacements                       630                       # number of replacements
system.l2cache.WritebackDirty_hits::.writebacks          101                       # number of WritebackDirty hits
system.l2cache.WritebackDirty_hits::total          101                       # number of WritebackDirty hits
system.l2cache.WritebackDirty_accesses::.writebacks          101                       # number of WritebackDirty accesses(hits+misses)
system.l2cache.WritebackDirty_accesses::total          101                       # number of WritebackDirty accesses(hits+misses)
system.l2cache.CleanEvict_mshr_misses::.writebacks           23                       # number of CleanEvict MSHR misses
system.l2cache.CleanEvict_mshr_misses::total           23                       # number of CleanEvict MSHR misses
system.l2cache.CleanEvict_mshr_miss_rate::.writebacks          inf                       # mshr miss rate for CleanEvict accesses
system.l2cache.CleanEvict_mshr_miss_rate::total          inf                       # mshr miss rate for CleanEvict accesses
system.l2cache.UpgradeReq_hits::.cpu.data            2                       # number of UpgradeReq hits
system.l2cache.UpgradeReq_hits::total               2                       # number of UpgradeReq hits
system.l2cache.UpgradeReq_accesses::.cpu.data            2                       # number of UpgradeReq accesses(hits+misses)
system.l2cache.UpgradeReq_accesses::total            2                       # number of UpgradeReq accesses(hits+misses)
system.l2cache.ReadExReq_hits::.cpu.data            4                       # number of ReadExReq hits
system.l2cache.ReadExReq_hits::total                4                       # number of ReadExReq hits
system.l2cache.ReadExReq_misses::.cpu.data           26                       # number of ReadExReq misses
system.l2cache.ReadExReq_misses::total             26                       # number of ReadExReq misses
system.l2cache.ReadExReq_miss_latency::.cpu.data      1754000                       # number of ReadExReq miss cycles
system.l2cache.ReadExReq_miss_latency::total      1754000                       # number of ReadExReq miss cycles
system.l2cache.ReadExReq_accesses::.cpu.data           30                       # number of ReadExReq accesses(hits+misses)
system.l2cache.ReadExReq_accesses::total           30                       # number of ReadExReq accesses(hits+misses)
system.l2cache.ReadExReq_miss_rate::.cpu.data     0.866667                       # miss rate for ReadExReq accesses
system.l2cache.ReadExReq_miss_rate::total     0.866667                       # miss rate for ReadExReq accesses
system.l2cache.ReadExReq_avg_miss_latency::.cpu.data 67461.538462                       # average ReadExReq miss latency
system.l2cache.ReadExReq_avg_miss_latency::total 67461.538462                       # average ReadExReq miss latency
system.l2cache.ReadExReq_mshr_misses::.cpu.data           26                       # number of ReadExReq MSHR misses
system.l2cache.ReadExReq_mshr_misses::total           26                       # number of ReadExReq MSHR misses
system.l2cache.ReadExReq_mshr_miss_latency::.cpu.data      1546000                       # number of ReadExReq MSHR miss cycles
system.l2cache.ReadExReq_mshr_miss_latency::total      1546000                       # number of ReadExReq MSHR miss cycles
system.l2cache.ReadExReq_mshr_miss_rate::.cpu.data     0.866667                       # mshr miss rate for ReadExReq accesses
system.l2cache.ReadExReq_mshr_miss_rate::total     0.866667                       # mshr miss rate for ReadExReq accesses
system.l2cache.ReadExReq_avg_mshr_miss_latency::.cpu.data 59461.538462                       # average ReadExReq mshr miss latency
system.l2cache.ReadExReq_avg_mshr_miss_latency::total 59461.538462                       # average ReadExReq mshr miss latency
system.l2cache.ReadSharedReq_hits::.cpu.inst          670                       # number of ReadSharedReq hits
system.l2cache.ReadSharedReq_hits::.cpu.data          154                       # number of ReadSharedReq hits
system.l2cache.ReadSharedReq_hits::.cpu.dcache.prefetcher            5                       # number of ReadSharedReq hits
system.l2cache.ReadSharedReq_hits::total          829                       # number of ReadSharedReq hits
system.l2cache.ReadSharedReq_misses::.cpu.inst          404                       # number of ReadSharedReq misses
system.l2cache.ReadSharedReq_misses::.cpu.data          148                       # number of ReadSharedReq misses
system.l2cache.ReadSharedReq_misses::.cpu.dcache.prefetcher           47                       # number of ReadSharedReq misses
system.l2cache.ReadSharedReq_misses::total          599                       # number of ReadSharedReq misses
system.l2cache.ReadSharedReq_miss_latency::.cpu.inst     27463200                       # number of ReadSharedReq miss cycles
system.l2cache.ReadSharedReq_miss_latency::.cpu.data     10050800                       # number of ReadSharedReq miss cycles
system.l2cache.ReadSharedReq_miss_latency::.cpu.dcache.prefetcher      3313552                       # number of ReadSharedReq miss cycles
system.l2cache.ReadSharedReq_miss_latency::total     40827552                       # number of ReadSharedReq miss cycles
system.l2cache.ReadSharedReq_accesses::.cpu.inst         1074                       # number of ReadSharedReq accesses(hits+misses)
system.l2cache.ReadSharedReq_accesses::.cpu.data          302                       # number of ReadSharedReq accesses(hits+misses)
system.l2cache.ReadSharedReq_accesses::.cpu.dcache.prefetcher           52                       # number of ReadSharedReq accesses(hits+misses)
system.l2cache.ReadSharedReq_accesses::total         1428                       # number of ReadSharedReq accesses(hits+misses)
system.l2cache.ReadSharedReq_miss_rate::.cpu.inst     0.376164                       # miss rate for ReadSharedReq accesses
system.l2cache.ReadSharedReq_miss_rate::.cpu.data     0.490066                       # miss rate for ReadSharedReq accesses
system.l2cache.ReadSharedReq_miss_rate::.cpu.dcache.prefetcher     0.903846                       # miss rate for ReadSharedReq accesses
system.l2cache.ReadSharedReq_miss_rate::total     0.419468                       # miss rate for ReadSharedReq accesses
system.l2cache.ReadSharedReq_avg_miss_latency::.cpu.inst 67978.217822                       # average ReadSharedReq miss latency
system.l2cache.ReadSharedReq_avg_miss_latency::.cpu.data 67910.810811                       # average ReadSharedReq miss latency
system.l2cache.ReadSharedReq_avg_miss_latency::.cpu.dcache.prefetcher 70501.106383                       # average ReadSharedReq miss latency
system.l2cache.ReadSharedReq_avg_miss_latency::total 68159.519199                       # average ReadSharedReq miss latency
system.l2cache.ReadSharedReq_mshr_hits::.cpu.data            1                       # number of ReadSharedReq MSHR hits
system.l2cache.ReadSharedReq_mshr_hits::total            1                       # number of ReadSharedReq MSHR hits
system.l2cache.ReadSharedReq_mshr_misses::.cpu.inst          404                       # number of ReadSharedReq MSHR misses
system.l2cache.ReadSharedReq_mshr_misses::.cpu.data          147                       # number of ReadSharedReq MSHR misses
system.l2cache.ReadSharedReq_mshr_misses::.cpu.dcache.prefetcher           47                       # number of ReadSharedReq MSHR misses
system.l2cache.ReadSharedReq_mshr_misses::total          598                       # number of ReadSharedReq MSHR misses
system.l2cache.ReadSharedReq_mshr_miss_latency::.cpu.inst     24239200                       # number of ReadSharedReq MSHR miss cycles
system.l2cache.ReadSharedReq_mshr_miss_latency::.cpu.data      8818400                       # number of ReadSharedReq MSHR miss cycles
system.l2cache.ReadSharedReq_mshr_miss_latency::.cpu.dcache.prefetcher      2937552                       # number of ReadSharedReq MSHR miss cycles
system.l2cache.ReadSharedReq_mshr_miss_latency::total     35995152                       # number of ReadSharedReq MSHR miss cycles
system.l2cache.ReadSharedReq_mshr_miss_rate::.cpu.inst     0.376164                       # mshr miss rate for ReadSharedReq accesses
system.l2cache.ReadSharedReq_mshr_miss_rate::.cpu.data     0.486755                       # mshr miss rate for ReadSharedReq accesses
system.l2cache.ReadSharedReq_mshr_miss_rate::.cpu.dcache.prefetcher     0.903846                       # mshr miss rate for ReadSharedReq accesses
system.l2cache.ReadSharedReq_mshr_miss_rate::total     0.418768                       # mshr miss rate for ReadSharedReq accesses
system.l2cache.ReadSharedReq_avg_mshr_miss_latency::.cpu.inst 59998.019802                       # average ReadSharedReq mshr miss latency
system.l2cache.ReadSharedReq_avg_mshr_miss_latency::.cpu.data 59989.115646                       # average ReadSharedReq mshr miss latency
system.l2cache.ReadSharedReq_avg_mshr_miss_latency::.cpu.dcache.prefetcher 62501.106383                       # average ReadSharedReq mshr miss latency
system.l2cache.ReadSharedReq_avg_mshr_miss_latency::total 60192.561873                       # average ReadSharedReq mshr miss latency
system.l2cache.prefetcher.pwrStateResidencyTicks::UNDEFINED     87984800                       # Cumulative time (in ticks) in various power states
system.l2cache.tags.pwrStateResidencyTicks::UNDEFINED     87984800                       # Cumulative time (in ticks) in various power states
system.l2cache.tags.tagsinuse                    4096                       # Cycle average of tags in use
system.l2cache.tags.total_refs                  15402                       # Total number of references to valid blocks.
system.l2cache.tags.sampled_refs                 4726                       # Sample count of references to valid blocks.
system.l2cache.tags.avg_refs                 3.258993                       # Average number of references to valid blocks.
system.l2cache.tags.warmup_cycle                    0                       # Cycle when the warmup percentage was hit.
system.l2cache.tags.occ_blocks::.writebacks    35.311345                       # Average occupied blocks per requestor
system.l2cache.tags.occ_blocks::.cpu.inst  1117.562035                       # Average occupied blocks per requestor
system.l2cache.tags.occ_blocks::.cpu.data  1907.934265                       # Average occupied blocks per requestor
system.l2cache.tags.occ_blocks::.cpu.dcache.prefetcher   918.464329                       # Average occupied blocks per requestor
system.l2cache.tags.occ_blocks::.l2cache.prefetcher   116.728026                       # Average occupied blocks per requestor
system.l2cache.tags.occ_percent::.writebacks     0.008621                       # Average percentage of cache occupancy
system.l2cache.tags.occ_percent::.cpu.inst     0.272842                       # Average percentage of cache occupancy
system.l2cache.tags.occ_percent::.cpu.data     0.465804                       # Average percentage of cache occupancy
system.l2cache.tags.occ_percent::.cpu.dcache.prefetcher     0.224234                       # Average percentage of cache occupancy
system.l2cache.tags.occ_percent::.l2cache.prefetcher     0.028498                       # Average percentage of cache occupancy
system.l2cache.tags.occ_percent::total              1                       # Average percentage of cache occupancy
system.l2cache.tags.occ_task_id_blocks::1022          957                       # Occupied blocks per task id
system.l2cache.tags.occ_task_id_blocks::1024         3139                       # Occupied blocks per task id
system.l2cache.tags.age_task_id_blocks_1022::0            7                       # Occupied blocks per task id
system.l2cache.tags.age_task_id_blocks_1022::1           42                       # Occupied blocks per task id
system.l2cache.tags.age_task_id_blocks_1022::2          893                       # Occupied blocks per task id
system.l2cache.tags.age_task_id_blocks_1022::3           15                       # Occupied blocks per task id
system.l2cache.tags.age_task_id_blocks_1024::0          161                       # Occupied blocks per task id
system.l2cache.tags.age_task_id_blocks_1024::1          421                       # Occupied blocks per task id
system.l2cache.tags.age_task_id_blocks_1024::2         2424                       # Occupied blocks per task id
system.l2cache.tags.age_task_id_blocks_1024::3          133                       # Occupied blocks per task id
system.l2cache.tags.occ_task_id_percent::1022     0.233643                       # Percentage of cache occupancy per task id
system.l2cache.tags.occ_task_id_percent::1024     0.766357                       # Percentage of cache occupancy per task id
system.l2cache.tags.tag_accesses                23918                       # Number of tag accesses
system.l2cache.tags.data_accesses               23918                       # Number of data accesses
system.mem_ctrl.pwrStateResidencyTicks::UNDEFINED     87984800                       # Cumulative time (in ticks) in various power states
system.mem_ctrl.bytes_read::.cpu.inst           25792                       # Number of bytes read from this memory
system.mem_ctrl.bytes_read::.cpu.data           11072                       # Number of bytes read from this memory
system.mem_ctrl.bytes_read::.cpu.dcache.prefetcher         3008                       # Number of bytes read from this memory
system.mem_ctrl.bytes_read::total               39872                       # Number of bytes read from this memory
system.mem_ctrl.bytes_inst_read::.cpu.inst        25792                       # Number of instructions bytes read from this memory
system.mem_ctrl.bytes_inst_read::total          25792                       # Number of instructions bytes read from this memory
system.mem_ctrl.bytes_written::.writebacks         2560                       # Number of bytes written to this memory
system.mem_ctrl.bytes_written::total             2560                       # Number of bytes written to this memory
system.mem_ctrl.num_reads::.cpu.inst              403                       # Number of read requests responded to by this memory
system.mem_ctrl.num_reads::.cpu.data              173                       # Number of read requests responded to by this memory
system.mem_ctrl.num_reads::.cpu.dcache.prefetcher           47                       # Number of read requests responded to by this memory
system.mem_ctrl.num_reads::total                  623                       # Number of read requests responded to by this memory
system.mem_ctrl.num_writes::.writebacks            40                       # Number of write requests responded to by this memory
system.mem_ctrl.num_writes::total                  40                       # Number of write requests responded to by this memory
system.mem_ctrl.bw_read::.cpu.inst          293141543                       # Total read bandwidth from this memory (bytes/s)
system.mem_ctrl.bw_read::.cpu.data          125839918                       # Total read bandwidth from this memory (bytes/s)
system.mem_ctrl.bw_read::.cpu.dcache.prefetcher     34187723                       # Total read bandwidth from this memory (bytes/s)
system.mem_ctrl.bw_read::total              453169184                       # Total read bandwidth from this memory (bytes/s)
system.mem_ctrl.bw_inst_read::.cpu.inst     293141543                       # Instruction read bandwidth from this memory (bytes/s)
system.mem_ctrl.bw_inst_read::total         293141543                       # Instruction read bandwidth from this memory (bytes/s)
system.mem_ctrl.bw_write::.writebacks        29095935                       # Write bandwidth from this memory (bytes/s)
system.mem_ctrl.bw_write::total              29095935                       # Write bandwidth from this memory (bytes/s)
system.mem_ctrl.bw_total::.writebacks        29095935                       # Total bandwidth to/from this memory (bytes/s)
system.mem_ctrl.bw_total::.cpu.inst         293141543                       # Total bandwidth to/from this memory (bytes/s)
system.mem_ctrl.bw_total::.cpu.data         125839918                       # Total bandwidth to/from this memory (bytes/s)
system.mem_ctrl.bw_total::.cpu.dcache.prefetcher     34187723                       # Total bandwidth to/from this memory (bytes/s)
system.mem_ctrl.bw_total::total             482265119                       # Total bandwidth to/from this memory (bytes/s)

---------- End Simulation Statistics   ----------
