
---------- Begin Simulation Statistics ----------
final_tick                                 1082423200                       # Number of ticks from beginning of simulation (restored from checkpoints and never reset)
host_inst_rate                                 166014                       # Simulator instruction rate (inst/s)
host_mem_usage                                4402740                       # Number of bytes of host memory used
host_op_rate                                   288180                       # Simulator op (including micro ops) rate (op/s)
host_seconds                                    12.53                       # Real time elapsed on the host
host_tick_rate                               86387700                       # Simulator tick rate (ticks/s)
sim_freq                                 1000000000000                       # Frequency of simulated ticks
sim_insts                                     2080117                       # Number of instructions simulated
sim_ops                                       3610838                       # Number of ops (including micro ops) simulated
sim_seconds                                  0.001082                       # Number of seconds simulated
sim_ticks                                  1082423200                       # Number of ticks simulated
system.cpu.branchPred.BTBCorrect                    0                       # Number of correct BTB predictions (this stat may not work properly.
system.cpu.branchPred.BTBHitPct              0.000000                       # BTB Hit Percentage
system.cpu.branchPred.BTBHits                       0                       # Number of BTB hits
system.cpu.branchPred.BTBLookups               427280                       # Number of BTB lookups
system.cpu.branchPred.RASInCorrect                  8                       # Number of incorrect RAS predictions.
system.cpu.branchPred.condIncorrect             23111                       # Number of conditional branches incorrect
system.cpu.branchPred.condPredicted            456139                       # Number of conditional branches predicted
system.cpu.branchPred.indirectHits             237383                       # Number of indirect target hits.
system.cpu.branchPred.indirectLookups          427280                       # Number of indirect predictor lookups.
system.cpu.branchPred.indirectMisses           189897                       # Number of indirect misses.
system.cpu.branchPred.lookups                  483433                       # Number of BP lookups
system.cpu.branchPred.usedRAS                   11944                       # Number of times the RAS was used to get a target.
system.cpu.branchPredindirectMispredicted        11658                       # Number of mispredicted indirect branches.
system.cpu.cc_regfile_reads                   2361116                       # number of cc regfile reads
system.cpu.cc_regfile_writes                  1951067                       # number of cc regfile writes
system.cpu.commit.amos                              0                       # Number of atomic instructions committed
system.cpu.commit.branchMispredicts             23200                       # The number of times a branch was mispredicted
system.cpu.commit.branches                     346387                       # Number of branches committed
system.cpu.commit.bw_lim_events                601389                       # number cycles where commit BW limit reached
system.cpu.commit.commitNonSpecStalls             732                       # The number of times commit has been forced to stall to communicate backwards
system.cpu.commit.commitSquashedInsts          852348                       # The number of squashed insts skipped by commit
system.cpu.commit.committedInsts              2080117                       # Number of instructions committed
system.cpu.commit.committedOps                3610838                       # Number of ops (including micro ops) committed
system.cpu.commit.committed_per_cycle::samples      2324273                       # Number of insts commited each cycle
system.cpu.commit.committed_per_cycle::mean     1.553534                       # Number of insts commited each cycle
system.cpu.commit.committed_per_cycle::stdev     1.726217                       # Number of insts commited each cycle
system.cpu.commit.committed_per_cycle::underflows            0      0.00%      0.00% # Number of insts commited each cycle
system.cpu.commit.committed_per_cycle::0      1143401     49.19%     49.19% # Number of insts commited each cycle
system.cpu.commit.committed_per_cycle::1       181873      7.82%     57.02% # Number of insts commited each cycle
system.cpu.commit.committed_per_cycle::2       169421      7.29%     64.31% # Number of insts commited each cycle
system.cpu.commit.committed_per_cycle::3       228189      9.82%     74.13% # Number of insts commited each cycle
system.cpu.commit.committed_per_cycle::4       601389     25.87%    100.00% # Number of insts commited each cycle
system.cpu.commit.committed_per_cycle::overflows            0      0.00%    100.00% # Number of insts commited each cycle
system.cpu.commit.committed_per_cycle::min_value            0                       # Number of insts commited each cycle
system.cpu.commit.committed_per_cycle::max_value            4                       # Number of insts commited each cycle
system.cpu.commit.committed_per_cycle::total      2324273                       # Number of insts commited each cycle
system.cpu.commit.fp_insts                      73288                       # Number of committed floating point instructions.
system.cpu.commit.function_calls                10076                       # Number of function calls committed.
system.cpu.commit.int_insts                   3556585                       # Number of committed integer instructions.
system.cpu.commit.loads                        491532                       # Number of loads committed
system.cpu.commit.membars                           1                       # Number of memory barriers committed
system.cpu.commit.op_class_0::No_OpClass        19908      0.55%      0.55% # Class of committed instruction
system.cpu.commit.op_class_0::IntAlu          2849332     78.91%     79.46% # Class of committed instruction
system.cpu.commit.op_class_0::IntMult            1275      0.04%     79.50% # Class of committed instruction
system.cpu.commit.op_class_0::IntDiv            35767      0.99%     80.49% # Class of committed instruction
system.cpu.commit.op_class_0::FloatAdd           2852      0.08%     80.57% # Class of committed instruction
system.cpu.commit.op_class_0::FloatCmp              0      0.00%     80.57% # Class of committed instruction
system.cpu.commit.op_class_0::FloatCvt           1200      0.03%     80.60% # Class of committed instruction
system.cpu.commit.op_class_0::FloatMult             0      0.00%     80.60% # Class of committed instruction
system.cpu.commit.op_class_0::FloatMultAcc            0      0.00%     80.60% # Class of committed instruction
system.cpu.commit.op_class_0::FloatDiv              0      0.00%     80.60% # Class of committed instruction
system.cpu.commit.op_class_0::FloatMisc             0      0.00%     80.60% # Class of committed instruction
system.cpu.commit.op_class_0::FloatSqrt             0      0.00%     80.60% # Class of committed instruction
system.cpu.commit.op_class_0::SimdAdd            6214      0.17%     80.77% # Class of committed instruction
system.cpu.commit.op_class_0::SimdAddAcc            0      0.00%     80.77% # Class of committed instruction
system.cpu.commit.op_class_0::SimdAlu           11198      0.31%     81.08% # Class of committed instruction
system.cpu.commit.op_class_0::SimdCmp               0      0.00%     81.08% # Class of committed instruction
system.cpu.commit.op_class_0::SimdCvt           12110      0.34%     81.42% # Class of committed instruction
system.cpu.commit.op_class_0::SimdMisc           6509      0.18%     81.60% # Class of committed instruction
system.cpu.commit.op_class_0::SimdMult              0      0.00%     81.60% # Class of committed instruction
system.cpu.commit.op_class_0::SimdMultAcc            0      0.00%     81.60% # Class of committed instruction
system.cpu.commit.op_class_0::SimdShift          1163      0.03%     81.63% # Class of committed instruction
system.cpu.commit.op_class_0::SimdShiftAcc            0      0.00%     81.63% # Class of committed instruction
system.cpu.commit.op_class_0::SimdDiv               0      0.00%     81.63% # Class of committed instruction
system.cpu.commit.op_class_0::SimdSqrt              0      0.00%     81.63% # Class of committed instruction
system.cpu.commit.op_class_0::SimdFloatAdd            0      0.00%     81.63% # Class of committed instruction
system.cpu.commit.op_class_0::SimdFloatAlu            0      0.00%     81.63% # Class of committed instruction
system.cpu.commit.op_class_0::SimdFloatCmp            0      0.00%     81.63% # Class of committed instruction
system.cpu.commit.op_class_0::SimdFloatCvt            0      0.00%     81.63% # Class of committed instruction
system.cpu.commit.op_class_0::SimdFloatDiv            0      0.00%     81.63% # Class of committed instruction
system.cpu.commit.op_class_0::SimdFloatMisc            0      0.00%     81.63% # Class of committed instruction
system.cpu.commit.op_class_0::SimdFloatMult            0      0.00%     81.63% # Class of committed instruction
system.cpu.commit.op_class_0::SimdFloatMultAcc            0      0.00%     81.63% # Class of committed instruction
system.cpu.commit.op_class_0::SimdFloatSqrt            0      0.00%     81.63% # Class of committed instruction
system.cpu.commit.op_class_0::SimdReduceAdd            0      0.00%     81.63% # Class of committed instruction
system.cpu.commit.op_class_0::SimdReduceAlu            0      0.00%     81.63% # Class of committed instruction
system.cpu.commit.op_class_0::SimdReduceCmp            0      0.00%     81.63% # Class of committed instruction
system.cpu.commit.op_class_0::SimdFloatReduceAdd            0      0.00%     81.63% # Class of committed instruction
system.cpu.commit.op_class_0::SimdFloatReduceCmp            0      0.00%     81.63% # Class of committed instruction
system.cpu.commit.op_class_0::SimdAes               0      0.00%     81.63% # Class of committed instruction
system.cpu.commit.op_class_0::SimdAesMix            0      0.00%     81.63% # Class of committed instruction
system.cpu.commit.op_class_0::SimdSha1Hash            0      0.00%     81.63% # Class of committed instruction
system.cpu.commit.op_class_0::SimdSha1Hash2            0      0.00%     81.63% # Class of committed instruction
system.cpu.commit.op_class_0::SimdSha256Hash            0      0.00%     81.63% # Class of committed instruction
system.cpu.commit.op_class_0::SimdSha256Hash2            0      0.00%     81.63% # Class of committed instruction
system.cpu.commit.op_class_0::SimdShaSigma2            0      0.00%     81.63% # Class of committed instruction
system.cpu.commit.op_class_0::SimdShaSigma3            0      0.00%     81.63% # Class of committed instruction
system.cpu.commit.op_class_0::SimdPredAlu            0      0.00%     81.63% # Class of committed instruction
system.cpu.commit.op_class_0::MemRead          472412     13.08%     94.71% # Class of committed instruction
system.cpu.commit.op_class_0::MemWrite         159709      4.42%     99.14% # Class of committed instruction
system.cpu.commit.op_class_0::FloatMemRead        19120      0.53%     99.67% # Class of committed instruction
system.cpu.commit.op_class_0::FloatMemWrite        12069      0.33%    100.00% # Class of committed instruction
system.cpu.commit.op_class_0::IprAccess             0      0.00%    100.00% # Class of committed instruction
system.cpu.commit.op_class_0::InstPrefetch            0      0.00%    100.00% # Class of committed instruction
system.cpu.commit.op_class_0::total           3610838                       # Class of committed instruction
system.cpu.commit.refs                         663310                       # Number of memory references committed
system.cpu.commit.swp_count                         0                       # Number of s/w prefetches committed
system.cpu.commit.vec_insts                         0                       # Number of committed Vector instructions.
system.cpu.committedInsts                     2080117                       # Number of Instructions Simulated
system.cpu.committedOps                       3610838                       # Number of Ops (including micro ops) Simulated
system.cpu.cpi                               1.300917                       # CPI: Cycles Per Instruction
system.cpu.cpi_total                         1.300917                       # CPI: Total CPI of All Threads
system.cpu.dcache.prefetcher.num_hwpf_issued         8225                       # number of hwpf issued
system.cpu.dcache.prefetcher.pfBufferHit        34804                       # number of redundant prefetches already in prefetch queue
system.cpu.dcache.prefetcher.pfIdentified        50105                       # number of prefetch candidates identified
system.cpu.dcache.prefetcher.pfInCache              0                       # number of redundant prefetches already in cache/mshr dropped
system.cpu.dcache.prefetcher.pfRemovedFull            0                       # number of prefetches dropped due to prefetch queue size
system.cpu.dcache.prefetcher.pfSpanPage          4511                       # number of prefetches that crossed the page
system.cpu.decode.BlockedCycles               1023051                       # Number of cycles decode is blocked
system.cpu.decode.DecodedInsts                4670171                       # Number of instructions handled by decode
system.cpu.decode.IdleCycles                   287478                       # Number of cycles decode is idle
system.cpu.decode.RunCycles                   1133053                       # Number of cycles decode is running
system.cpu.decode.SquashCycles                  23262                       # Number of cycles decode is squashing
system.cpu.decode.UnblockCycles                 90034                       # Number of cycles decode is unblocking
system.cpu.dtb.rdAccesses                      570595                       # TLB accesses on read requests
system.cpu.dtb.rdMisses                          2007                       # TLB misses on read requests
system.cpu.dtb.wrAccesses                      190165                       # TLB accesses on write requests
system.cpu.dtb.wrMisses                           159                       # TLB misses on write requests
system.cpu.fetch.Branches                      483433                       # Number of branches that fetch encountered
system.cpu.fetch.CacheLines                    236021                       # Number of cache lines fetched
system.cpu.fetch.Cycles                       2211286                       # Number of cycles fetch has run and was not squashing or blocked
system.cpu.fetch.IcacheSquashes                  4312                       # Number of outstanding Icache misses that were squashed
system.cpu.fetch.IcacheWaitRetryStallCycles           17                       # Number of stall cycles due to full MSHR
system.cpu.fetch.Insts                        2821306                       # Number of instructions fetch has processed
system.cpu.fetch.MiscStallCycles                   97                       # Number of cycles fetch has spent waiting on interrupts, or bad addresses, or out of MSHRs
system.cpu.fetch.PendingQuiesceStallCycles            6                       # Number of stall cycles due to pending quiesce instructions
system.cpu.fetch.PendingTrapStallCycles           625                       # Number of stall cycles due to pending traps
system.cpu.fetch.SquashCycles                   46524                       # Number of cycles fetch has spent squashing
system.cpu.fetch.branchRate                  0.178648                       # Number of branch fetches per cycle
system.cpu.fetch.icacheStallCycles             321585                       # Number of cycles fetch is stalled on an Icache miss
system.cpu.fetch.predictedBranches             249327                       # Number of branches that fetch has predicted taken
system.cpu.fetch.rate                        1.042589                       # Number of inst fetches per cycle
system.cpu.fetch.rateDist::samples            2556878                       # Number of instructions fetched each cycle (Total)
system.cpu.fetch.rateDist::mean              1.930750                       # Number of instructions fetched each cycle (Total)
system.cpu.fetch.rateDist::stdev             1.930262                       # Number of instructions fetched each cycle (Total)
system.cpu.fetch.rateDist::underflows               0      0.00%      0.00% # Number of instructions fetched each cycle (Total)
system.cpu.fetch.rateDist::0                  1218686     47.66%     47.66% # Number of instructions fetched each cycle (Total)
system.cpu.fetch.rateDist::1                    73865      2.89%     50.55% # Number of instructions fetched each cycle (Total)
system.cpu.fetch.rateDist::2                    58241      2.28%     52.83% # Number of instructions fetched each cycle (Total)
system.cpu.fetch.rateDist::3                    77998      3.05%     55.88% # Number of instructions fetched each cycle (Total)
system.cpu.fetch.rateDist::4                  1128088     44.12%    100.00% # Number of instructions fetched each cycle (Total)
system.cpu.fetch.rateDist::overflows                0      0.00%    100.00% # Number of instructions fetched each cycle (Total)
system.cpu.fetch.rateDist::min_value                0                       # Number of instructions fetched each cycle (Total)
system.cpu.fetch.rateDist::max_value                4                       # Number of instructions fetched each cycle (Total)
system.cpu.fetch.rateDist::total              2556878                       # Number of instructions fetched each cycle (Total)
system.cpu.fp_regfile_reads                    119876                       # number of floating regfile reads
system.cpu.fp_regfile_writes                    65880                       # number of floating regfile writes
system.cpu.fuPool.fu_ticks_busy::IntALU(0)    217383600                       # Total ticks fu was busy
system.cpu.fuPool.fu_ticks_busy::IntALU(1)    217383600                       # Total ticks fu was busy
system.cpu.fuPool.fu_ticks_busy::IntALU(2)    217383600                       # Total ticks fu was busy
system.cpu.fuPool.fu_ticks_busy::IntALU(3)    217383600                       # Total ticks fu was busy
system.cpu.fuPool.fu_ticks_busy::IntALU(4)    217383600                       # Total ticks fu was busy
system.cpu.fuPool.fu_ticks_busy::IntALU(5)    217383600                       # Total ticks fu was busy
system.cpu.fuPool.fu_ticks_busy::IntMultDiv(0)      8095200                       # Total ticks fu was busy
system.cpu.fuPool.fu_ticks_busy::IntMultDiv(1)      8094800                       # Total ticks fu was busy
system.cpu.fuPool.fu_ticks_busy::FP_ALU(0)       554400                       # Total ticks fu was busy
system.cpu.fuPool.fu_ticks_busy::FP_ALU(1)       554000                       # Total ticks fu was busy
system.cpu.fuPool.fu_ticks_busy::FP_ALU(2)       554000                       # Total ticks fu was busy
system.cpu.fuPool.fu_ticks_busy::FP_ALU(3)       554000                       # Total ticks fu was busy
system.cpu.fuPool.fu_ticks_busy::FP_MultDiv(0)            0                       # Total ticks fu was busy
system.cpu.fuPool.fu_ticks_busy::FP_MultDiv(1)            0                       # Total ticks fu was busy
system.cpu.fuPool.fu_ticks_busy::SIMD_Unit(0)      4510400                       # Total ticks fu was busy
system.cpu.fuPool.fu_ticks_busy::SIMD_Unit(1)      4517200                       # Total ticks fu was busy
system.cpu.fuPool.fu_ticks_busy::SIMD_Unit(2)      4486800                       # Total ticks fu was busy
system.cpu.fuPool.fu_ticks_busy::SIMD_Unit(3)      4478400                       # Total ticks fu was busy
system.cpu.fuPool.fu_ticks_busy::PredALU(0)            0                       # Total ticks fu was busy
system.cpu.fuPool.fu_ticks_busy::RdWrPort(0)     77515200                       # Total ticks fu was busy
system.cpu.fuPool.fu_ticks_busy::RdWrPort(1)     77462800                       # Total ticks fu was busy
system.cpu.fuPool.fu_ticks_busy::RdWrPort(2)     77457600                       # Total ticks fu was busy
system.cpu.fuPool.fu_ticks_busy::RdWrPort(3)     77502000                       # Total ticks fu was busy
system.cpu.fuPool.fu_ticks_busy::IprPort(0)            0                       # Total ticks fu was busy
system.cpu.fuPool.fu_ticks_busy::total     1650638400                       # Total ticks fu was busy
system.cpu.icache.prefetcher.num_hwpf_issued            0                       # number of hwpf issued
system.cpu.icache.prefetcher.pfBufferHit            0                       # number of redundant prefetches already in prefetch queue
system.cpu.icache.prefetcher.pfIdentified            0                       # number of prefetch candidates identified
system.cpu.icache.prefetcher.pfInCache              0                       # number of redundant prefetches already in cache/mshr dropped
system.cpu.icache.prefetcher.pfRemovedFull            0                       # number of prefetches dropped due to prefetch queue size
system.cpu.icache.prefetcher.pfSpanPage             0                       # number of prefetches that crossed the page
system.cpu.idleCycles                          149181                       # Total number of cycles that the CPU has spent unscheduled due to idling
system.cpu.iew.branchMispredicts                27408                       # Number of branch mispredicts detected at execute
system.cpu.iew.exec_branches                   374353                       # Number of branches executed
system.cpu.iew.exec_nop                             0                       # number of nop insts executed
system.cpu.iew.exec_rate                     1.522301                       # Inst execution rate
system.cpu.iew.exec_refs                       762463                       # number of memory reference insts executed
system.cpu.iew.exec_stores                     190156                       # Number of stores executed
system.cpu.iew.exec_swp                             0                       # number of swp insts executed
system.cpu.iew.iewBlockCycles                  690305                       # Number of cycles IEW is blocking
system.cpu.iew.iewDispLoadInsts                601981                       # Number of dispatched load instructions
system.cpu.iew.iewDispNonSpecInsts                934                       # Number of dispatched non-speculative instructions
system.cpu.iew.iewDispSquashedInsts               588                       # Number of squashed instructions skipped by dispatch
system.cpu.iew.iewDispStoreInsts               199978                       # Number of dispatched store instructions
system.cpu.iew.iewDispatchedInsts             4463134                       # Number of instructions dispatched to IQ
system.cpu.iew.iewExecLoadInsts                572307                       # Number of load instructions executed
system.cpu.iew.iewExecSquashedInsts             32895                       # Number of squashed instructions skipped in execute
system.cpu.iew.iewExecutedInsts               4119437                       # Number of executed instructions
system.cpu.iew.iewIQFullEvents                   3343                       # Number of times the IQ has become full, causing a stall
system.cpu.iew.iewIdleCycles                        0                       # Number of cycles IEW is idle
system.cpu.iew.iewLSQFullEvents                  8862                       # Number of times the LSQ has become full, causing a stall
system.cpu.iew.iewSquashCycles                  23262                       # Number of cycles IEW is squashing
system.cpu.iew.iewUnblockCycles                 15061                       # Number of cycles IEW is unblocking
system.cpu.iew.lsq.thread0.blockedLoads             0                       # Number of blocked loads due to partial load-store forwarding
system.cpu.iew.lsq.thread0.cacheBlocked           605                       # Number of times an access to memory failed due to the cache being blocked
system.cpu.iew.lsq.thread0.forwLoads            39212                       # Number of loads that had data forwarded from stores
system.cpu.iew.lsq.thread0.ignoredResponses          267                       # Number of memory responses ignored because the instruction is squashed
system.cpu.iew.lsq.thread0.invAddrLoads             0                       # Number of loads ignored due to an invalid address
system.cpu.iew.lsq.thread0.invAddrSwpfs             0                       # Number of software prefetches ignored due to an invalid address
system.cpu.iew.lsq.thread0.memOrderViolation           75                       # Number of memory ordering violations
system.cpu.iew.lsq.thread0.rescheduledLoads            0                       # Number of loads that were rescheduled
system.cpu.iew.lsq.thread0.squashedLoads       110447                       # Number of loads squashed
system.cpu.iew.lsq.thread0.squashedStores        28199                       # Number of stores squashed
system.cpu.iew.memOrderViolationEvents             75                       # Number of memory order violations
system.cpu.iew.predictedNotTakenIncorrect        19643                       # Number of branches that were predicted not taken incorrectly
system.cpu.iew.predictedTakenIncorrect           7765                       # Number of branches that were predicted taken incorrectly
system.cpu.iew.wb_consumers                   5790825                       # num instructions consuming a value
system.cpu.iew.wb_count                       4098316                       # cumulative count of insts written-back
system.cpu.iew.wb_fanout                     0.566839                       # average fanout of values written-back
system.cpu.iew.wb_producers                   3282466                       # num instructions producing a value
system.cpu.iew.wb_rate                       1.514496                       # insts written-back per cycle
system.cpu.iew.wb_sent                        4104906                       # cumulative count of insts sent to commit
system.cpu.int_regfile_reads                  6381127                       # number of integer regfile reads
system.cpu.int_regfile_writes                 3539171                       # number of integer regfile writes
system.cpu.ipc                               0.768689                       # IPC: Instructions Per Cycle
system.cpu.ipc_total                         0.768689                       # IPC: Total IPC of All Threads
system.cpu.iq.FU_type_0::No_OpClass             25736      0.62%      0.62% # Type of FU issued
system.cpu.iq.FU_type_0::IntAlu               3260755     78.53%     79.15% # Type of FU issued
system.cpu.iq.FU_type_0::IntMult                 1297      0.03%     79.18% # Type of FU issued
system.cpu.iq.FU_type_0::IntDiv                 39178      0.94%     80.12% # Type of FU issued
system.cpu.iq.FU_type_0::FloatAdd                4313      0.10%     80.23% # Type of FU issued
system.cpu.iq.FU_type_0::FloatCmp                   0      0.00%     80.23% # Type of FU issued
system.cpu.iq.FU_type_0::FloatCvt                1228      0.03%     80.26% # Type of FU issued
system.cpu.iq.FU_type_0::FloatMult                  0      0.00%     80.26% # Type of FU issued
system.cpu.iq.FU_type_0::FloatMultAcc               0      0.00%     80.26% # Type of FU issued
system.cpu.iq.FU_type_0::FloatDiv                   0      0.00%     80.26% # Type of FU issued
system.cpu.iq.FU_type_0::FloatMisc                  0      0.00%     80.26% # Type of FU issued
system.cpu.iq.FU_type_0::FloatSqrt                  0      0.00%     80.26% # Type of FU issued
system.cpu.iq.FU_type_0::SimdAdd                 6880      0.17%     80.42% # Type of FU issued
system.cpu.iq.FU_type_0::SimdAddAcc                 0      0.00%     80.42% # Type of FU issued
system.cpu.iq.FU_type_0::SimdAlu                14908      0.36%     80.78% # Type of FU issued
system.cpu.iq.FU_type_0::SimdCmp                    0      0.00%     80.78% # Type of FU issued
system.cpu.iq.FU_type_0::SimdCvt                13927      0.34%     81.12% # Type of FU issued
system.cpu.iq.FU_type_0::SimdMisc                7137      0.17%     81.29% # Type of FU issued
system.cpu.iq.FU_type_0::SimdMult                   0      0.00%     81.29% # Type of FU issued
system.cpu.iq.FU_type_0::SimdMultAcc                0      0.00%     81.29% # Type of FU issued
system.cpu.iq.FU_type_0::SimdShift               2130      0.05%     81.34% # Type of FU issued
system.cpu.iq.FU_type_0::SimdShiftAcc               0      0.00%     81.34% # Type of FU issued
system.cpu.iq.FU_type_0::SimdDiv                    0      0.00%     81.34% # Type of FU issued
system.cpu.iq.FU_type_0::SimdSqrt                   0      0.00%     81.34% # Type of FU issued
system.cpu.iq.FU_type_0::SimdFloatAdd               0      0.00%     81.34% # Type of FU issued
system.cpu.iq.FU_type_0::SimdFloatAlu               0      0.00%     81.34% # Type of FU issued
system.cpu.iq.FU_type_0::SimdFloatCmp               0      0.00%     81.34% # Type of FU issued
system.cpu.iq.FU_type_0::SimdFloatCvt               0      0.00%     81.34% # Type of FU issued
system.cpu.iq.FU_type_0::SimdFloatDiv               0      0.00%     81.34% # Type of FU issued
system.cpu.iq.FU_type_0::SimdFloatMisc              0      0.00%     81.34% # Type of FU issued
system.cpu.iq.FU_type_0::SimdFloatMult              0      0.00%     81.34% # Type of FU issued
system.cpu.iq.FU_type_0::SimdFloatMultAcc            0      0.00%     81.34% # Type of FU issued
system.cpu.iq.FU_type_0::SimdFloatSqrt              0      0.00%     81.34% # Type of FU issued
system.cpu.iq.FU_type_0::SimdReduceAdd              0      0.00%     81.34% # Type of FU issued
system.cpu.iq.FU_type_0::SimdReduceAlu              0      0.00%     81.34% # Type of FU issued
system.cpu.iq.FU_type_0::SimdReduceCmp              0      0.00%     81.34% # Type of FU issued
system.cpu.iq.FU_type_0::SimdFloatReduceAdd            0      0.00%     81.34% # Type of FU issued
system.cpu.iq.FU_type_0::SimdFloatReduceCmp            0      0.00%     81.34% # Type of FU issued
system.cpu.iq.FU_type_0::SimdAes                    0      0.00%     81.34% # Type of FU issued
system.cpu.iq.FU_type_0::SimdAesMix                 0      0.00%     81.34% # Type of FU issued
system.cpu.iq.FU_type_0::SimdSha1Hash               0      0.00%     81.34% # Type of FU issued
system.cpu.iq.FU_type_0::SimdSha1Hash2              0      0.00%     81.34% # Type of FU issued
system.cpu.iq.FU_type_0::SimdSha256Hash             0      0.00%     81.34% # Type of FU issued
system.cpu.iq.FU_type_0::SimdSha256Hash2            0      0.00%     81.34% # Type of FU issued
system.cpu.iq.FU_type_0::SimdShaSigma2              0      0.00%     81.34% # Type of FU issued
system.cpu.iq.FU_type_0::SimdShaSigma3              0      0.00%     81.34% # Type of FU issued
system.cpu.iq.FU_type_0::SimdPredAlu                0      0.00%     81.34% # Type of FU issued
system.cpu.iq.FU_type_0::MemRead               557008     13.41%     94.75% # Type of FU issued
system.cpu.iq.FU_type_0::MemWrite              179337      4.32%     99.07% # Type of FU issued
system.cpu.iq.FU_type_0::FloatMemRead           25238      0.61%     99.68% # Type of FU issued
system.cpu.iq.FU_type_0::FloatMemWrite          13263      0.32%    100.00% # Type of FU issued
system.cpu.iq.FU_type_0::IprAccess                  0      0.00%    100.00% # Type of FU issued
system.cpu.iq.FU_type_0::InstPrefetch               0      0.00%    100.00% # Type of FU issued
system.cpu.iq.FU_type_0::total                4152335                       # Type of FU issued
system.cpu.iq.fp_alu_accesses                   90022                       # Number of floating point alu accesses
system.cpu.iq.fp_inst_queue_reads              181508                       # Number of floating instruction queue reads
system.cpu.iq.fp_inst_queue_wakeup_accesses        86475                       # Number of floating instruction queue wakeup accesses
system.cpu.iq.fp_inst_queue_writes             131654                       # Number of floating instruction queue writes
system.cpu.iq.fu_busy_cnt                           0                       # FU busy when requested
system.cpu.iq.fu_busy_rate                          0                       # FU busy rate (busy events/executed inst)
system.cpu.iq.fu_full::No_OpClass                   0                       # attempts to use FU when none available
system.cpu.iq.fu_full::IntAlu                       0                       # attempts to use FU when none available
system.cpu.iq.fu_full::IntMult                      0                       # attempts to use FU when none available
system.cpu.iq.fu_full::IntDiv                       0                       # attempts to use FU when none available
system.cpu.iq.fu_full::FloatAdd                     0                       # attempts to use FU when none available
system.cpu.iq.fu_full::FloatCmp                     0                       # attempts to use FU when none available
system.cpu.iq.fu_full::FloatCvt                     0                       # attempts to use FU when none available
system.cpu.iq.fu_full::FloatMult                    0                       # attempts to use FU when none available
system.cpu.iq.fu_full::FloatMultAcc                 0                       # attempts to use FU when none available
system.cpu.iq.fu_full::FloatDiv                     0                       # attempts to use FU when none available
system.cpu.iq.fu_full::FloatMisc                    0                       # attempts to use FU when none available
system.cpu.iq.fu_full::FloatSqrt                    0                       # attempts to use FU when none available
system.cpu.iq.fu_full::SimdAdd                      0                       # attempts to use FU when none available
system.cpu.iq.fu_full::SimdAddAcc                   0                       # attempts to use FU when none available
system.cpu.iq.fu_full::SimdAlu                      0                       # attempts to use FU when none available
system.cpu.iq.fu_full::SimdCmp                      0                       # attempts to use FU when none available
system.cpu.iq.fu_full::SimdCvt                      0                       # attempts to use FU when none available
system.cpu.iq.fu_full::SimdMisc                     0                       # attempts to use FU when none available
system.cpu.iq.fu_full::SimdMult                     0                       # attempts to use FU when none available
system.cpu.iq.fu_full::SimdMultAcc                  0                       # attempts to use FU when none available
system.cpu.iq.fu_full::SimdShift                    0                       # attempts to use FU when none available
system.cpu.iq.fu_full::SimdShiftAcc                 0                       # attempts to use FU when none available
system.cpu.iq.fu_full::SimdDiv                      0                       # attempts to use FU when none available
system.cpu.iq.fu_full::SimdSqrt                     0                       # attempts to use FU when none available
system.cpu.iq.fu_full::SimdFloatAdd                 0                       # attempts to use FU when none available
system.cpu.iq.fu_full::SimdFloatAlu                 0                       # attempts to use FU when none available
system.cpu.iq.fu_full::SimdFloatCmp                 0                       # attempts to use FU when none available
system.cpu.iq.fu_full::SimdFloatCvt                 0                       # attempts to use FU when none available
system.cpu.iq.fu_full::SimdFloatDiv                 0                       # attempts to use FU when none available
system.cpu.iq.fu_full::SimdFloatMisc                0                       # attempts to use FU when none available
system.cpu.iq.fu_full::SimdFloatMult                0                       # attempts to use FU when none available
system.cpu.iq.fu_full::SimdFloatMultAcc             0                       # attempts to use FU when none available
system.cpu.iq.fu_full::SimdFloatSqrt                0                       # attempts to use FU when none available
system.cpu.iq.fu_full::SimdReduceAdd                0                       # attempts to use FU when none available
system.cpu.iq.fu_full::SimdReduceAlu                0                       # attempts to use FU when none available
system.cpu.iq.fu_full::SimdReduceCmp                0                       # attempts to use FU when none available
system.cpu.iq.fu_full::SimdFloatReduceAdd            0                       # attempts to use FU when none available
system.cpu.iq.fu_full::SimdFloatReduceCmp            0                       # attempts to use FU when none available
system.cpu.iq.fu_full::SimdAes                      0                       # attempts to use FU when none available
system.cpu.iq.fu_full::SimdAesMix                   0                       # attempts to use FU when none available
system.cpu.iq.fu_full::SimdSha1Hash                 0                       # attempts to use FU when none available
system.cpu.iq.fu_full::SimdSha1Hash2                0                       # attempts to use FU when none available
system.cpu.iq.fu_full::SimdSha256Hash               0                       # attempts to use FU when none available
system.cpu.iq.fu_full::SimdSha256Hash2              0                       # attempts to use FU when none available
system.cpu.iq.fu_full::SimdShaSigma2                0                       # attempts to use FU when none available
system.cpu.iq.fu_full::SimdShaSigma3                0                       # attempts to use FU when none available
system.cpu.iq.fu_full::SimdPredAlu                  0                       # attempts to use FU when none available
system.cpu.iq.fu_full::MemRead                      0                       # attempts to use FU when none available
system.cpu.iq.fu_full::MemWrite                     0                       # attempts to use FU when none available
system.cpu.iq.fu_full::FloatMemRead                 0                       # attempts to use FU when none available
system.cpu.iq.fu_full::FloatMemWrite                0                       # attempts to use FU when none available
system.cpu.iq.fu_full::IprAccess                    0                       # attempts to use FU when none available
system.cpu.iq.fu_full::InstPrefetch                 0                       # attempts to use FU when none available
system.cpu.iq.int_alu_accesses                4036577                       # Number of integer alu accesses
system.cpu.iq.int_inst_queue_reads           10697355                       # Number of integer instruction queue reads
system.cpu.iq.int_inst_queue_wakeup_accesses      4011841                       # Number of integer instruction queue wakeup accesses
system.cpu.iq.int_inst_queue_writes           5183838                       # Number of integer instruction queue writes
system.cpu.iq.iqInstsAdded                    4462001                       # Number of instructions added to the IQ (excludes non-spec)
system.cpu.iq.iqInstsIssued                   4152335                       # Number of instructions issued
system.cpu.iq.iqNonSpecInstsAdded                1133                       # Number of non-speculative instructions added to the IQ
system.cpu.iq.iqSquashedInstsExamined          852285                       # Number of squashed instructions iterated over during squash; mainly for profiling
system.cpu.iq.iqSquashedInstsIssued             17318                       # Number of squashed instructions issued
system.cpu.iq.iqSquashedNonSpecRemoved            401                       # Number of squashed non-spec instructions that were removed
system.cpu.iq.iqSquashedOperandsExamined      1277781                       # Number of squashed operands that are examined and possibly removed from graph
system.cpu.iq.issued_per_cycle::samples       2556878                       # Number of insts issued each cycle
system.cpu.iq.issued_per_cycle::mean         1.623986                       # Number of insts issued each cycle
system.cpu.iq.issued_per_cycle::stdev        1.668708                       # Number of insts issued each cycle
system.cpu.iq.issued_per_cycle::underflows            0      0.00%      0.00% # Number of insts issued each cycle
system.cpu.iq.issued_per_cycle::0             1152603     45.08%     45.08% # Number of insts issued each cycle
system.cpu.iq.issued_per_cycle::1              174059      6.81%     51.89% # Number of insts issued each cycle
system.cpu.iq.issued_per_cycle::2              301889     11.81%     63.69% # Number of insts issued each cycle
system.cpu.iq.issued_per_cycle::3              338810     13.25%     76.94% # Number of insts issued each cycle
system.cpu.iq.issued_per_cycle::4              589517     23.06%    100.00% # Number of insts issued each cycle
system.cpu.iq.issued_per_cycle::overflows            0      0.00%    100.00% # Number of insts issued each cycle
system.cpu.iq.issued_per_cycle::min_value            0                       # Number of insts issued each cycle
system.cpu.iq.issued_per_cycle::max_value            4                       # Number of insts issued each cycle
system.cpu.iq.issued_per_cycle::total         2556878                       # Number of insts issued each cycle
system.cpu.iq.rate                           1.534458                       # Inst issue rate
system.cpu.iq.vec_alu_accesses                      0                       # Number of vector alu accesses
system.cpu.iq.vec_inst_queue_reads                  0                       # Number of vector instruction queue reads
system.cpu.iq.vec_inst_queue_wakeup_accesses            0                       # Number of vector instruction queue wakeup accesses
system.cpu.iq.vec_inst_queue_writes                 0                       # Number of vector instruction queue writes
system.cpu.itb.rdAccesses                           0                       # TLB accesses on read requests
system.cpu.itb.rdMisses                             0                       # TLB misses on read requests
system.cpu.itb.wrAccesses                      236126                       # TLB accesses on write requests
system.cpu.itb.wrMisses                           344                       # TLB misses on write requests
system.cpu.memDep0.conflictingLoads             13735                       # Number of conflicting loads.
system.cpu.memDep0.conflictingStores             4924                       # Number of conflicting stores.
system.cpu.memDep0.insertedLoads               601981                       # Number of loads inserted to the mem dependence unit.
system.cpu.memDep0.insertedStores              199978                       # Number of stores inserted to the mem dependence unit.
system.cpu.misc_regfile_reads                 1547806                       # number of misc regfile reads
system.cpu.misc_regfile_writes                    675                       # number of misc regfile writes
system.cpu.numCycles                          2706059                       # number of cpu cycles simulated
system.cpu.numWorkItemsCompleted                    0                       # number of work items this cpu completed
system.cpu.numWorkItemsStarted                      0                       # number of work items this cpu started
system.cpu.process.numSyscalls                     56                       # Number of system calls
system.cpu.rename.BlockCycles                  835963                       # Number of cycles rename is blocking
system.cpu.rename.CommittedMaps               4958711                       # Number of HB maps that are committed
system.cpu.rename.FullRegisterEvents               47                       # Number of times there has been no free registers
system.cpu.rename.IQFullEvents                  48867                       # Number of times rename has blocked due to IQ full
system.cpu.rename.IdleCycles                   338101                       # Number of cycles rename is idle
system.cpu.rename.LQFullEvents                  13962                       # Number of times rename has blocked due to LQ full
system.cpu.rename.ROBFullEvents                  4065                       # Number of times rename has blocked due to ROB full
system.cpu.rename.RenameLookups              11988010                       # Number of register rename lookups that rename has made
system.cpu.rename.RenamedInsts                4598378                       # Number of instructions processed by rename
system.cpu.rename.RenamedOperands             6299929                       # Number of destination operands rename has renamed
system.cpu.rename.RunCycles                   1164034                       # Number of cycles rename is running
system.cpu.rename.SQFullEvents                  75593                       # Number of times rename has blocked due to SQ full
system.cpu.rename.SquashCycles                  23262                       # Number of cycles rename is squashing
system.cpu.rename.UnblockCycles                176077                       # Number of cycles rename is unblocking
system.cpu.rename.UndoneMaps                  1341195                       # Number of HB maps that are undone due to squashing
system.cpu.rename.fp_rename_lookups            155962                       # Number of floating rename lookups
system.cpu.rename.int_rename_lookups          7290352                       # Number of integer rename lookups
system.cpu.rename.serializeStallCycles          19441                       # count of cycles rename stalled for serializing inst
system.cpu.rename.serializingInsts                866                       # count of serializing insts renamed
system.cpu.rename.skidInsts                    212969                       # count of insts added to the skid buffer
system.cpu.rename.tempSerializingInsts            913                       # count of temporary serializing insts renamed
system.cpu.rob.rob_reads                      6186070                       # The number of ROB reads
system.cpu.rob.rob_writes                     9159883                       # The number of ROB writes
system.cpu.timesIdled                            1468                       # Number of times that the entire CPU went into an idle state and unscheduled itself
system.l2bus.snoop_filter.hit_multi_requests           10                       # Number of requests hitting in the snoop filter with multiple (>1) holders of the requested data.
system.l2bus.snoop_filter.hit_multi_snoops            0                       # Number of snoops hitting in the snoop filter with multiple (>1) holders of the requested data.
system.l2bus.snoop_filter.hit_single_requests        18189                       # Number of requests hitting in the snoop filter with a single holder of the requested data.
system.l2bus.snoop_filter.hit_single_snoops          417                       # Number of snoops hitting in the snoop filter with a single holder of the requested data.
system.l2bus.snoop_filter.tot_requests          37658                       # Total number of requests made to the snoop filter.
system.l2bus.snoop_filter.tot_snoops              417                       # Total number of snoops made to the snoop filter.
system.l2cache.prefetcher.num_hwpf_issued          628                       # number of hwpf issued
system.l2cache.prefetcher.pfBufferHit               0                       # number of redundant prefetches already in prefetch queue
system.l2cache.prefetcher.pfIdentified            628                       # number of prefetch candidates identified
system.l2cache.prefetcher.pfInCache                 0                       # number of redundant prefetches already in cache/mshr dropped
system.l2cache.prefetcher.pfRemovedFull             0                       # number of prefetches dropped due to prefetch queue size
system.l2cache.prefetcher.pfSpanPage              116                       # number of prefetches that crossed the page
system.membus.snoop_filter.hit_multi_requests            0                       # Number of requests hitting in the snoop filter with multiple (>1) holders of the requested data.
system.membus.snoop_filter.hit_multi_snoops            0                       # Number of snoops hitting in the snoop filter with multiple (>1) holders of the requested data.
system.membus.snoop_filter.hit_single_requests         9259                       # Number of requests hitting in the snoop filter with a single holder of the requested data.
system.membus.snoop_filter.hit_single_snoops            0                       # Number of snoops hitting in the snoop filter with a single holder of the requested data.
system.membus.snoop_filter.tot_requests         22639                       # Total number of requests made to the snoop filter.
system.membus.snoop_filter.tot_snoops               0                       # Total number of snoops made to the snoop filter.
system.membus.pwrStateResidencyTicks::UNDEFINED   1082423200                       # Cumulative time (in ticks) in various power states
system.membus.trans_dist::ReadResp              12023                       # Transaction distribution
system.membus.trans_dist::WritebackDirty         1328                       # Transaction distribution
system.membus.trans_dist::CleanEvict             7931                       # Transaction distribution
system.membus.trans_dist::ReadExReq              1357                       # Transaction distribution
system.membus.trans_dist::ReadExResp             1357                       # Transaction distribution
system.membus.trans_dist::ReadSharedReq         12023                       # Transaction distribution
system.membus.pkt_count_system.l2cache.mem_side::system.mem_ctrl.port        36019                       # Packet count per connected master and slave (bytes)
system.membus.pkt_count_system.l2cache.mem_side::total        36019                       # Packet count per connected master and slave (bytes)
system.membus.pkt_count::total                  36019                       # Packet count per connected master and slave (bytes)
system.membus.pkt_size_system.l2cache.mem_side::system.mem_ctrl.port       941312                       # Cumulative packet size per connected master and slave (bytes)
system.membus.pkt_size_system.l2cache.mem_side::total       941312                       # Cumulative packet size per connected master and slave (bytes)
system.membus.pkt_size::total                  941312                       # Cumulative packet size per connected master and slave (bytes)
system.membus.snoops                                0                       # Total snoops (count)
system.membus.snoopTraffic                          0                       # Total snoop traffic (bytes)
system.membus.snoop_fanout::samples             13380                       # Request fanout histogram
system.membus.snoop_fanout::mean                    0                       # Request fanout histogram
system.membus.snoop_fanout::stdev                   0                       # Request fanout histogram
system.membus.snoop_fanout::underflows              0      0.00%      0.00% # Request fanout histogram
system.membus.snoop_fanout::0                   13380    100.00%    100.00% # Request fanout histogram
system.membus.snoop_fanout::1                       0      0.00%    100.00% # Request fanout histogram
system.membus.snoop_fanout::overflows               0      0.00%    100.00% # Request fanout histogram
system.membus.snoop_fanout::min_value               0                       # Request fanout histogram
system.membus.snoop_fanout::max_value               0                       # Request fanout histogram
system.membus.snoop_fanout::total               13380                       # Request fanout histogram
system.membus.reqLayer2.occupancy            11205034                       # Layer occupancy (ticks)
system.membus.reqLayer2.utilization               1.0                       # Layer utilization (%)
system.membus.respLayer0.occupancy           29040866                       # Layer occupancy (ticks)
system.membus.respLayer0.utilization              2.7                       # Layer utilization (%)
system.l2bus.pwrStateResidencyTicks::UNDEFINED   1082423200                       # Cumulative time (in ticks) in various power states
system.l2bus.trans_dist::ReadResp               17381                       # Transaction distribution
system.l2bus.trans_dist::WritebackDirty          4090                       # Transaction distribution
system.l2bus.trans_dist::CleanEvict             23437                       # Transaction distribution
system.l2bus.trans_dist::HardPFReq                890                       # Transaction distribution
system.l2bus.trans_dist::ReadExReq               2088                       # Transaction distribution
system.l2bus.trans_dist::ReadExResp              2088                       # Transaction distribution
system.l2bus.trans_dist::ReadSharedReq          17381                       # Transaction distribution
system.l2bus.pkt_count_system.cpu.icache.mem_side::system.l2cache.cpu_side         7538                       # Packet count per connected master and slave (bytes)
system.l2bus.pkt_count_system.cpu.dcache.mem_side::system.l2cache.cpu_side        49586                       # Packet count per connected master and slave (bytes)
system.l2bus.pkt_count::total                   57124                       # Packet count per connected master and slave (bytes)
system.l2bus.pkt_size_system.cpu.icache.mem_side::system.l2cache.cpu_side       166144                       # Cumulative packet size per connected master and slave (bytes)
system.l2bus.pkt_size_system.cpu.dcache.mem_side::system.l2cache.cpu_side      1256448                       # Cumulative packet size per connected master and slave (bytes)
system.l2bus.pkt_size::total                  1422592                       # Cumulative packet size per connected master and slave (bytes)
system.l2bus.snoops                             10231                       # Total snoops (count)
system.l2bus.snoopTraffic                       85184                       # Total snoop traffic (bytes)
system.l2bus.snoop_fanout::samples              29697                       # Request fanout histogram
system.l2bus.snoop_fanout::mean              0.014379                       # Request fanout histogram
system.l2bus.snoop_fanout::stdev             0.119047                       # Request fanout histogram
system.l2bus.snoop_fanout::underflows               0      0.00%      0.00% # Request fanout histogram
system.l2bus.snoop_fanout::0                    29270     98.56%     98.56% # Request fanout histogram
system.l2bus.snoop_fanout::1                      427      1.44%    100.00% # Request fanout histogram
system.l2bus.snoop_fanout::2                        0      0.00%    100.00% # Request fanout histogram
system.l2bus.snoop_fanout::overflows                0      0.00%    100.00% # Request fanout histogram
system.l2bus.snoop_fanout::min_value                0                       # Request fanout histogram
system.l2bus.snoop_fanout::max_value                1                       # Request fanout histogram
system.l2bus.snoop_fanout::total                29697                       # Request fanout histogram
system.l2bus.respLayer1.occupancy            20245197                       # Layer occupancy (ticks)
system.l2bus.respLayer1.utilization               1.9                       # Layer utilization (%)
system.l2bus.reqLayer0.occupancy             18695873                       # Layer occupancy (ticks)
system.l2bus.reqLayer0.utilization                1.7                       # Layer utilization (%)
system.l2bus.respLayer0.occupancy             3119199                       # Layer occupancy (ticks)
system.l2bus.respLayer0.utilization               0.3                       # Layer utilization (%)
system.clk_domain.clock                           400                       # Clock period in ticks
system.clk_domain.voltage_domain.voltage            1                       # Voltage in Volts
system.cpu.pwrStateResidencyTicks::ON      1082423200                       # Cumulative time (in ticks) in various power states
system.cpu.icache.pwrStateResidencyTicks::UNDEFINED   1082423200                       # Cumulative time (in ticks) in various power states
system.cpu.icache.demand_hits::.cpu.inst       232764                       # number of demand (read+write) hits
system.cpu.icache.demand_hits::total           232764                       # number of demand (read+write) hits
system.cpu.icache.overall_hits::.cpu.inst       232764                       # number of overall hits
system.cpu.icache.overall_hits::total          232764                       # number of overall hits
system.cpu.icache.demand_misses::.cpu.inst         3257                       # number of demand (read+write) misses
system.cpu.icache.demand_misses::total           3257                       # number of demand (read+write) misses
system.cpu.icache.overall_misses::.cpu.inst         3257                       # number of overall misses
system.cpu.icache.overall_misses::total          3257                       # number of overall misses
system.cpu.icache.demand_miss_latency::.cpu.inst    163379999                       # number of demand (read+write) miss cycles
system.cpu.icache.demand_miss_latency::total    163379999                       # number of demand (read+write) miss cycles
system.cpu.icache.overall_miss_latency::.cpu.inst    163379999                       # number of overall miss cycles
system.cpu.icache.overall_miss_latency::total    163379999                       # number of overall miss cycles
system.cpu.icache.demand_accesses::.cpu.inst       236021                       # number of demand (read+write) accesses
system.cpu.icache.demand_accesses::total       236021                       # number of demand (read+write) accesses
system.cpu.icache.overall_accesses::.cpu.inst       236021                       # number of overall (read+write) accesses
system.cpu.icache.overall_accesses::total       236021                       # number of overall (read+write) accesses
system.cpu.icache.demand_miss_rate::.cpu.inst     0.013800                       # miss rate for demand accesses
system.cpu.icache.demand_miss_rate::total     0.013800                       # miss rate for demand accesses
system.cpu.icache.overall_miss_rate::.cpu.inst     0.013800                       # miss rate for overall accesses
system.cpu.icache.overall_miss_rate::total     0.013800                       # miss rate for overall accesses
system.cpu.icache.demand_avg_miss_latency::.cpu.inst 50162.726128                       # average overall miss latency
system.cpu.icache.demand_avg_miss_latency::total 50162.726128                       # average overall miss latency
system.cpu.icache.overall_avg_miss_latency::.cpu.inst 50162.726128                       # average overall miss latency
system.cpu.icache.overall_avg_miss_latency::total 50162.726128                       # average overall miss latency
system.cpu.icache.blocked_cycles::no_mshrs           54                       # number of cycles access was blocked
system.cpu.icache.blocked_cycles::no_targets            0                       # number of cycles access was blocked
system.cpu.icache.blocked::no_mshrs                 3                       # number of cycles access was blocked
system.cpu.icache.blocked::no_targets               0                       # number of cycles access was blocked
system.cpu.icache.avg_blocked_cycles::no_mshrs           18                       # average number of cycles each access was blocked
system.cpu.icache.avg_blocked_cycles::no_targets          nan                       # average number of cycles each access was blocked
system.cpu.icache.demand_mshr_hits::.cpu.inst          658                       # number of demand (read+write) MSHR hits
system.cpu.icache.demand_mshr_hits::total          658                       # number of demand (read+write) MSHR hits
system.cpu.icache.overall_mshr_hits::.cpu.inst          658                       # number of overall MSHR hits
system.cpu.icache.overall_mshr_hits::total          658                       # number of overall MSHR hits
system.cpu.icache.demand_mshr_misses::.cpu.inst         2599                       # number of demand (read+write) MSHR misses
system.cpu.icache.demand_mshr_misses::total         2599                       # number of demand (read+write) MSHR misses
system.cpu.icache.overall_mshr_misses::.cpu.inst         2599                       # number of overall MSHR misses
system.cpu.icache.overall_mshr_misses::total         2599                       # number of overall MSHR misses
system.cpu.icache.demand_mshr_miss_latency::.cpu.inst    131549999                       # number of demand (read+write) MSHR miss cycles
system.cpu.icache.demand_mshr_miss_latency::total    131549999                       # number of demand (read+write) MSHR miss cycles
system.cpu.icache.overall_mshr_miss_latency::.cpu.inst    131549999                       # number of overall MSHR miss cycles
system.cpu.icache.overall_mshr_miss_latency::total    131549999                       # number of overall MSHR miss cycles
system.cpu.icache.demand_mshr_miss_rate::.cpu.inst     0.011012                       # mshr miss rate for demand accesses
system.cpu.icache.demand_mshr_miss_rate::total     0.011012                       # mshr miss rate for demand accesses
system.cpu.icache.overall_mshr_miss_rate::.cpu.inst     0.011012                       # mshr miss rate for overall accesses
system.cpu.icache.overall_mshr_miss_rate::total     0.011012                       # mshr miss rate for overall accesses
system.cpu.icache.demand_avg_mshr_miss_latency::.cpu.inst 50615.621008                       # average overall mshr miss latency
system.cpu.icache.demand_avg_mshr_miss_latency::total 50615.621008                       # average overall mshr miss latency
system.cpu.icache.overall_avg_mshr_miss_latency::.cpu.inst 50615.621008                       # average overall mshr miss latency
system.cpu.icache.overall_avg_mshr_miss_latency::total 50615.621008                       # average overall mshr miss latency
system.cpu.icache.replacements                   2343                       # number of replacements
system.cpu.icache.ReadReq_hits::.cpu.inst       232764                       # number of ReadReq hits
system.cpu.icache.ReadReq_hits::total          232764                       # number of ReadReq hits
system.cpu.icache.ReadReq_misses::.cpu.inst         3257                       # number of ReadReq misses
system.cpu.icache.ReadReq_misses::total          3257                       # number of ReadReq misses
system.cpu.icache.ReadReq_miss_latency::.cpu.inst    163379999                       # number of ReadReq miss cycles
system.cpu.icache.ReadReq_miss_latency::total    163379999                       # number of ReadReq miss cycles
system.cpu.icache.ReadReq_accesses::.cpu.inst       236021                       # number of ReadReq accesses(hits+misses)
system.cpu.icache.ReadReq_accesses::total       236021                       # number of ReadReq accesses(hits+misses)
system.cpu.icache.ReadReq_miss_rate::.cpu.inst     0.013800                       # miss rate for ReadReq accesses
system.cpu.icache.ReadReq_miss_rate::total     0.013800                       # miss rate for ReadReq accesses
system.cpu.icache.ReadReq_avg_miss_latency::.cpu.inst 50162.726128                       # average ReadReq miss latency
system.cpu.icache.ReadReq_avg_miss_latency::total 50162.726128                       # average ReadReq miss latency
system.cpu.icache.ReadReq_mshr_hits::.cpu.inst          658                       # number of ReadReq MSHR hits
system.cpu.icache.ReadReq_mshr_hits::total          658                       # number of ReadReq MSHR hits
system.cpu.icache.ReadReq_mshr_misses::.cpu.inst         2599                       # number of ReadReq MSHR misses
system.cpu.icache.ReadReq_mshr_misses::total         2599                       # number of ReadReq MSHR misses
system.cpu.icache.ReadReq_mshr_miss_latency::.cpu.inst    131549999                       # number of ReadReq MSHR miss cycles
system.cpu.icache.ReadReq_mshr_miss_latency::total    131549999                       # number of ReadReq MSHR miss cycles
system.cpu.icache.ReadReq_mshr_miss_rate::.cpu.inst     0.011012                       # mshr miss rate for ReadReq accesses
system.cpu.icache.ReadReq_mshr_miss_rate::total     0.011012                       # mshr miss rate for ReadReq accesses
system.cpu.icache.ReadReq_avg_mshr_miss_latency::.cpu.inst 50615.621008                       # average ReadReq mshr miss latency
system.cpu.icache.ReadReq_avg_mshr_miss_latency::total 50615.621008                       # average ReadReq mshr miss latency
system.cpu.icache.prefetcher.pwrStateResidencyTicks::UNDEFINED   1082423200                       # Cumulative time (in ticks) in various power states
system.cpu.icache.tags.pwrStateResidencyTicks::UNDEFINED   1082423200                       # Cumulative time (in ticks) in various power states
system.cpu.icache.tags.tagsinuse           253.453688                       # Cycle average of tags in use
system.cpu.icache.tags.total_refs              200003                       # Total number of references to valid blocks.
system.cpu.icache.tags.sampled_refs              2343                       # Sample count of references to valid blocks.
system.cpu.icache.tags.avg_refs             85.361929                       # Average number of references to valid blocks.
system.cpu.icache.tags.warmup_cycle             66400                       # Cycle when the warmup percentage was hit.
system.cpu.icache.tags.occ_blocks::.cpu.inst   253.453688                       # Average occupied blocks per requestor
system.cpu.icache.tags.occ_percent::.cpu.inst     0.990053                       # Average percentage of cache occupancy
system.cpu.icache.tags.occ_percent::total     0.990053                       # Average percentage of cache occupancy
system.cpu.icache.tags.occ_task_id_blocks::1024          256                       # Occupied blocks per task id
system.cpu.icache.tags.age_task_id_blocks_1024::0           68                       # Occupied blocks per task id
system.cpu.icache.tags.age_task_id_blocks_1024::1          156                       # Occupied blocks per task id
system.cpu.icache.tags.age_task_id_blocks_1024::2           32                       # Occupied blocks per task id
system.cpu.icache.tags.occ_task_id_percent::1024            1                       # Percentage of cache occupancy per task id
system.cpu.icache.tags.tag_accesses            474641                       # Number of tag accesses
system.cpu.icache.tags.data_accesses           474641                       # Number of data accesses
system.cpu.dtb.walker.pwrStateResidencyTicks::UNDEFINED   1082423200                       # Cumulative time (in ticks) in various power states
system.cpu.interrupts.clk_domain.clock           6400                       # Clock period in ticks
system.cpu.itb.walker.pwrStateResidencyTicks::UNDEFINED   1082423200                       # Cumulative time (in ticks) in various power states
system.cpu.dcache.pwrStateResidencyTicks::UNDEFINED   1082423200                       # Cumulative time (in ticks) in various power states
system.cpu.dcache.demand_hits::.cpu.data       667150                       # number of demand (read+write) hits
system.cpu.dcache.demand_hits::total           667150                       # number of demand (read+write) hits
system.cpu.dcache.overall_hits::.cpu.data       667150                       # number of overall hits
system.cpu.dcache.overall_hits::total          667150                       # number of overall hits
system.cpu.dcache.demand_misses::.cpu.data        34917                       # number of demand (read+write) misses
system.cpu.dcache.demand_misses::total          34917                       # number of demand (read+write) misses
system.cpu.dcache.overall_misses::.cpu.data        34917                       # number of overall misses
system.cpu.dcache.overall_misses::total         34917                       # number of overall misses
system.cpu.dcache.demand_miss_latency::.cpu.data   1691384799                       # number of demand (read+write) miss cycles
system.cpu.dcache.demand_miss_latency::total   1691384799                       # number of demand (read+write) miss cycles
system.cpu.dcache.overall_miss_latency::.cpu.data   1691384799                       # number of overall miss cycles
system.cpu.dcache.overall_miss_latency::total   1691384799                       # number of overall miss cycles
system.cpu.dcache.demand_accesses::.cpu.data       702067                       # number of demand (read+write) accesses
system.cpu.dcache.demand_accesses::total       702067                       # number of demand (read+write) accesses
system.cpu.dcache.overall_accesses::.cpu.data       702067                       # number of overall (read+write) accesses
system.cpu.dcache.overall_accesses::total       702067                       # number of overall (read+write) accesses
system.cpu.dcache.demand_miss_rate::.cpu.data     0.049735                       # miss rate for demand accesses
system.cpu.dcache.demand_miss_rate::total     0.049735                       # miss rate for demand accesses
system.cpu.dcache.overall_miss_rate::.cpu.data     0.049735                       # miss rate for overall accesses
system.cpu.dcache.overall_miss_rate::total     0.049735                       # miss rate for overall accesses
system.cpu.dcache.demand_avg_miss_latency::.cpu.data 48440.152333                       # average overall miss latency
system.cpu.dcache.demand_avg_miss_latency::total 48440.152333                       # average overall miss latency
system.cpu.dcache.overall_avg_miss_latency::.cpu.data 48440.152333                       # average overall miss latency
system.cpu.dcache.overall_avg_miss_latency::total 48440.152333                       # average overall miss latency
system.cpu.dcache.blocked_cycles::no_mshrs        28420                       # number of cycles access was blocked
system.cpu.dcache.blocked_cycles::no_targets          369                       # number of cycles access was blocked
system.cpu.dcache.blocked::no_mshrs               751                       # number of cycles access was blocked
system.cpu.dcache.blocked::no_targets               4                       # number of cycles access was blocked
system.cpu.dcache.avg_blocked_cycles::no_mshrs    37.842876                       # average number of cycles each access was blocked
system.cpu.dcache.avg_blocked_cycles::no_targets    92.250000                       # average number of cycles each access was blocked
system.cpu.dcache.unused_prefetches              1755                       # number of HardPF blocks evicted w/o reference
system.cpu.dcache.writebacks::.writebacks         2762                       # number of writebacks
system.cpu.dcache.writebacks::total              2762                       # number of writebacks
system.cpu.dcache.demand_mshr_hits::.cpu.data        22368                       # number of demand (read+write) MSHR hits
system.cpu.dcache.demand_mshr_hits::total        22368                       # number of demand (read+write) MSHR hits
system.cpu.dcache.overall_mshr_hits::.cpu.data        22368                       # number of overall MSHR hits
system.cpu.dcache.overall_mshr_hits::total        22368                       # number of overall MSHR hits
system.cpu.dcache.demand_mshr_misses::.cpu.data        12549                       # number of demand (read+write) MSHR misses
system.cpu.dcache.demand_mshr_misses::total        12549                       # number of demand (read+write) MSHR misses
system.cpu.dcache.overall_mshr_misses::.cpu.data        12549                       # number of overall MSHR misses
system.cpu.dcache.overall_mshr_misses::.cpu.dcache.prefetcher         4321                       # number of overall MSHR misses
system.cpu.dcache.overall_mshr_misses::total        16870                       # number of overall MSHR misses
system.cpu.dcache.demand_mshr_miss_latency::.cpu.data    576709599                       # number of demand (read+write) MSHR miss cycles
system.cpu.dcache.demand_mshr_miss_latency::total    576709599                       # number of demand (read+write) MSHR miss cycles
system.cpu.dcache.overall_mshr_miss_latency::.cpu.data    576709599                       # number of overall MSHR miss cycles
system.cpu.dcache.overall_mshr_miss_latency::.cpu.dcache.prefetcher    251047371                       # number of overall MSHR miss cycles
system.cpu.dcache.overall_mshr_miss_latency::total    827756970                       # number of overall MSHR miss cycles
system.cpu.dcache.demand_mshr_miss_rate::.cpu.data     0.017874                       # mshr miss rate for demand accesses
system.cpu.dcache.demand_mshr_miss_rate::total     0.017874                       # mshr miss rate for demand accesses
system.cpu.dcache.overall_mshr_miss_rate::.cpu.data     0.017874                       # mshr miss rate for overall accesses
system.cpu.dcache.overall_mshr_miss_rate::.cpu.dcache.prefetcher          inf                       # mshr miss rate for overall accesses
system.cpu.dcache.overall_mshr_miss_rate::total     0.024029                       # mshr miss rate for overall accesses
system.cpu.dcache.demand_avg_mshr_miss_latency::.cpu.data 45956.617978                       # average overall mshr miss latency
system.cpu.dcache.demand_avg_mshr_miss_latency::total 45956.617978                       # average overall mshr miss latency
system.cpu.dcache.overall_avg_mshr_miss_latency::.cpu.data 45956.617978                       # average overall mshr miss latency
system.cpu.dcache.overall_avg_mshr_miss_latency::.cpu.dcache.prefetcher 58099.368433                       # average overall mshr miss latency
system.cpu.dcache.overall_avg_mshr_miss_latency::total 49066.803201                       # average overall mshr miss latency
system.cpu.dcache.replacements                  15846                       # number of replacements
system.cpu.dcache.ReadReq_hits::.cpu.data       497493                       # number of ReadReq hits
system.cpu.dcache.ReadReq_hits::total          497493                       # number of ReadReq hits
system.cpu.dcache.ReadReq_misses::.cpu.data        32791                       # number of ReadReq misses
system.cpu.dcache.ReadReq_misses::total         32791                       # number of ReadReq misses
system.cpu.dcache.ReadReq_miss_latency::.cpu.data   1584930400                       # number of ReadReq miss cycles
system.cpu.dcache.ReadReq_miss_latency::total   1584930400                       # number of ReadReq miss cycles
system.cpu.dcache.ReadReq_accesses::.cpu.data       530284                       # number of ReadReq accesses(hits+misses)
system.cpu.dcache.ReadReq_accesses::total       530284                       # number of ReadReq accesses(hits+misses)
system.cpu.dcache.ReadReq_miss_rate::.cpu.data     0.061837                       # miss rate for ReadReq accesses
system.cpu.dcache.ReadReq_miss_rate::total     0.061837                       # miss rate for ReadReq accesses
system.cpu.dcache.ReadReq_avg_miss_latency::.cpu.data 48334.311244                       # average ReadReq miss latency
system.cpu.dcache.ReadReq_avg_miss_latency::total 48334.311244                       # average ReadReq miss latency
system.cpu.dcache.ReadReq_mshr_hits::.cpu.data        22329                       # number of ReadReq MSHR hits
system.cpu.dcache.ReadReq_mshr_hits::total        22329                       # number of ReadReq MSHR hits
system.cpu.dcache.ReadReq_mshr_misses::.cpu.data        10462                       # number of ReadReq MSHR misses
system.cpu.dcache.ReadReq_mshr_misses::total        10462                       # number of ReadReq MSHR misses
system.cpu.dcache.ReadReq_mshr_miss_latency::.cpu.data    473594000                       # number of ReadReq MSHR miss cycles
system.cpu.dcache.ReadReq_mshr_miss_latency::total    473594000                       # number of ReadReq MSHR miss cycles
system.cpu.dcache.ReadReq_mshr_miss_rate::.cpu.data     0.019729                       # mshr miss rate for ReadReq accesses
system.cpu.dcache.ReadReq_mshr_miss_rate::total     0.019729                       # mshr miss rate for ReadReq accesses
system.cpu.dcache.ReadReq_avg_mshr_miss_latency::.cpu.data 45268.017587                       # average ReadReq mshr miss latency
system.cpu.dcache.ReadReq_avg_mshr_miss_latency::total 45268.017587                       # average ReadReq mshr miss latency
system.cpu.dcache.WriteReq_hits::.cpu.data       169657                       # number of WriteReq hits
system.cpu.dcache.WriteReq_hits::total         169657                       # number of WriteReq hits
system.cpu.dcache.WriteReq_misses::.cpu.data         2126                       # number of WriteReq misses
system.cpu.dcache.WriteReq_misses::total         2126                       # number of WriteReq misses
system.cpu.dcache.WriteReq_miss_latency::.cpu.data    106454399                       # number of WriteReq miss cycles
system.cpu.dcache.WriteReq_miss_latency::total    106454399                       # number of WriteReq miss cycles
system.cpu.dcache.WriteReq_accesses::.cpu.data       171783                       # number of WriteReq accesses(hits+misses)
system.cpu.dcache.WriteReq_accesses::total       171783                       # number of WriteReq accesses(hits+misses)
system.cpu.dcache.WriteReq_miss_rate::.cpu.data     0.012376                       # miss rate for WriteReq accesses
system.cpu.dcache.WriteReq_miss_rate::total     0.012376                       # miss rate for WriteReq accesses
system.cpu.dcache.WriteReq_avg_miss_latency::.cpu.data 50072.624177                       # average WriteReq miss latency
system.cpu.dcache.WriteReq_avg_miss_latency::total 50072.624177                       # average WriteReq miss latency
system.cpu.dcache.WriteReq_mshr_hits::.cpu.data           39                       # number of WriteReq MSHR hits
system.cpu.dcache.WriteReq_mshr_hits::total           39                       # number of WriteReq MSHR hits
system.cpu.dcache.WriteReq_mshr_misses::.cpu.data         2087                       # number of WriteReq MSHR misses
system.cpu.dcache.WriteReq_mshr_misses::total         2087                       # number of WriteReq MSHR misses
system.cpu.dcache.WriteReq_mshr_miss_latency::.cpu.data    103115599                       # number of WriteReq MSHR miss cycles
[...]
system.l2cache.overall_mshr_miss_latency::.l2cache.prefetcher       159198                       # number of overall MSHR miss cycles
system.l2cache.overall_mshr_miss_latency::total     24749562                       # number of overall MSHR miss cycles
system.l2cache.demand_mshr_miss_rate::.cpu.inst     0.567130                       # mshr miss rate for demand accesses
system.l2cache.demand_mshr_miss_rate::.cpu.data     0.547325                       # mshr miss rate for demand accesses
system.l2cache.demand_mshr_miss_rate::.cpu.dcache.prefetcher     0.809524                       # mshr miss rate for demand accesses
system.l2cache.demand_mshr_miss_rate::total     0.574616                       # mshr miss rate for demand accesses
system.l2cache.overall_mshr_miss_rate::.cpu.inst     0.567130                       # mshr miss rate for overall accesses
system.l2cache.overall_mshr_miss_rate::.cpu.data     0.547325                       # mshr miss rate for overall accesses
system.l2cache.overall_mshr_miss_rate::.cpu.dcache.prefetcher     0.809524                       # mshr miss rate for overall accesses
system.l2cache.overall_mshr_miss_rate::.l2cache.prefetcher          inf                       # mshr miss rate for overall accesses
system.l2cache.overall_mshr_miss_rate::total     0.578801                       # mshr miss rate for overall accesses
system.l2cache.demand_avg_mshr_miss_latency::.cpu.inst 59743.673469                       # average overall mshr miss latency
system.l2cache.demand_avg_mshr_miss_latency::.cpu.data 59636.090226                       # average overall mshr miss latency
system.l2cache.demand_avg_mshr_miss_latency::.cpu.dcache.prefetcher 59457.764706                       # average overall mshr miss latency
system.l2cache.demand_avg_mshr_miss_latency::total 59685.349515                       # average overall mshr miss latency
system.l2cache.overall_avg_mshr_miss_latency::.cpu.inst 59743.673469                       # average overall mshr miss latency
system.l2cache.overall_avg_mshr_miss_latency::.cpu.data 59636.090226                       # average overall mshr miss latency
system.l2cache.overall_avg_mshr_miss_latency::.cpu.dcache.prefetcher 59457.764706                       # average overall mshr miss latency
system.l2cache.overall_avg_mshr_miss_latency::.l2cache.prefetcher        53066                       # average overall mshr miss latency
system.l2cache.overall_avg_mshr_miss_latency::total 59637.498795                       # average overall mshr miss latency
system.l2cache.replacements                       429                       # number of replacements
system.l2cache.WritebackDirty_hits::.writebacks           96                       # number of WritebackDirty hits
system.l2cache.WritebackDirty_hits::total           96                       # number of WritebackDirty hits
system.l2cache.WritebackDirty_accesses::.writebacks           96                       # number of WritebackDirty accesses(hits+misses)
system.l2cache.WritebackDirty_accesses::total           96                       # number of WritebackDirty accesses(hits+misses)
system.l2cache.CleanEvict_mshr_misses::.writebacks           14                       # number of CleanEvict MSHR misses
system.l2cache.CleanEvict_mshr_misses::total           14                       # number of CleanEvict MSHR misses
system.l2cache.CleanEvict_mshr_miss_rate::.writebacks          inf                       # mshr miss rate for CleanEvict accesses
system.l2cache.CleanEvict_mshr_miss_rate::total          inf                       # mshr miss rate for CleanEvict accesses
system.l2cache.HardPFReq_mshr_misses::.l2cache.prefetcher            3                       # number of HardPFReq MSHR misses
system.l2cache.HardPFReq_mshr_misses::total            3                       # number of HardPFReq MSHR misses
system.l2cache.HardPFReq_mshr_miss_latency::.l2cache.prefetcher       159198                       # number of HardPFReq MSHR miss cycles
system.l2cache.HardPFReq_mshr_miss_latency::total       159198                       # number of HardPFReq MSHR miss cycles
system.l2cache.HardPFReq_mshr_miss_rate::.l2cache.prefetcher          inf                       # mshr miss rate for HardPFReq accesses
system.l2cache.HardPFReq_mshr_miss_rate::total          inf                       # mshr miss rate for HardPFReq accesses
system.l2cache.HardPFReq_avg_mshr_miss_latency::.l2cache.prefetcher        53066                       # average HardPFReq mshr miss latency
system.l2cache.HardPFReq_avg_mshr_miss_latency::total        53066                       # average HardPFReq mshr miss latency
system.l2cache.ReadExReq_hits::.cpu.data            4                       # number of ReadExReq hits
system.l2cache.ReadExReq_hits::total                4                       # number of ReadExReq hits
system.l2cache.ReadExReq_misses::.cpu.data            6                       # number of ReadExReq misses
system.l2cache.ReadExReq_misses::total              6                       # number of ReadExReq misses
system.l2cache.ReadExReq_miss_latency::.cpu.data       454000                       # number of ReadExReq miss cycles
system.l2cache.ReadExReq_miss_latency::total       454000                       # number of ReadExReq miss cycles
system.l2cache.ReadExReq_accesses::.cpu.data           10                       # number of ReadExReq accesses(hits+misses)
system.l2cache.ReadExReq_accesses::total           10                       # number of ReadExReq accesses(hits+misses)
system.l2cache.ReadExReq_miss_rate::.cpu.data     0.600000                       # miss rate for ReadExReq accesses
system.l2cache.ReadExReq_miss_rate::total     0.600000                       # miss rate for ReadExReq accesses
system.l2cache.ReadExReq_avg_miss_latency::.cpu.data 75666.666667                       # average ReadExReq miss latency
system.l2cache.ReadExReq_avg_miss_latency::total 75666.666667                       # average ReadExReq miss latency
system.l2cache.ReadExReq_mshr_misses::.cpu.data            6                       # number of ReadExReq MSHR misses
system.l2cache.ReadExReq_mshr_misses::total            6                       # number of ReadExReq MSHR misses
system.l2cache.ReadExReq_mshr_miss_latency::.cpu.data       406000                       # number of ReadExReq MSHR miss cycles
system.l2cache.ReadExReq_mshr_miss_latency::total       406000                       # number of ReadExReq MSHR miss cycles
system.l2cache.ReadExReq_mshr_miss_rate::.cpu.data     0.600000                       # mshr miss rate for ReadExReq accesses
system.l2cache.ReadExReq_mshr_miss_rate::total     0.600000                       # mshr miss rate for ReadExReq accesses
system.l2cache.ReadExReq_avg_mshr_miss_latency::.cpu.data 67666.666667                       # average ReadExReq mshr miss latency
system.l2cache.ReadExReq_avg_mshr_miss_latency::total 67666.666667                       # average ReadExReq mshr miss latency
system.l2cache.ReadSharedReq_hits::.cpu.inst          187                       # number of ReadSharedReq hits
system.l2cache.ReadSharedReq_hits::.cpu.data          106                       # number of ReadSharedReq hits
system.l2cache.ReadSharedReq_hits::.cpu.dcache.prefetcher            8                       # number of ReadSharedReq hits
system.l2cache.ReadSharedReq_hits::total          301                       # number of ReadSharedReq hits
system.l2cache.ReadSharedReq_misses::.cpu.inst          245                       # number of ReadSharedReq misses
system.l2cache.ReadSharedReq_misses::.cpu.data          127                       # number of ReadSharedReq misses
system.l2cache.ReadSharedReq_misses::.cpu.dcache.prefetcher           34                       # number of ReadSharedReq misses
system.l2cache.ReadSharedReq_misses::total          406                       # number of ReadSharedReq misses
system.l2cache.ReadSharedReq_miss_latency::.cpu.inst     16597200                       # number of ReadSharedReq miss cycles
system.l2cache.ReadSharedReq_miss_latency::.cpu.data      8541600                       # number of ReadSharedReq miss cycles
system.l2cache.ReadSharedReq_miss_latency::.cpu.dcache.prefetcher      2293564                       # number of ReadSharedReq miss cycles
system.l2cache.ReadSharedReq_miss_latency::total     27432364                       # number of ReadSharedReq miss cycles
system.l2cache.ReadSharedReq_accesses::.cpu.inst          432                       # number of ReadSharedReq accesses(hits+misses)
system.l2cache.ReadSharedReq_accesses::.cpu.data          233                       # number of ReadSharedReq accesses(hits+misses)
system.l2cache.ReadSharedReq_accesses::.cpu.dcache.prefetcher           42                       # number of ReadSharedReq accesses(hits+misses)
system.l2cache.ReadSharedReq_accesses::total          707                       # number of ReadSharedReq accesses(hits+misses)
system.l2cache.ReadSharedReq_miss_rate::.cpu.inst     0.567130                       # miss rate for ReadSharedReq accesses
system.l2cache.ReadSharedReq_miss_rate::.cpu.data     0.545064                       # miss rate for ReadSharedReq accesses
system.l2cache.ReadSharedReq_miss_rate::.cpu.dcache.prefetcher     0.809524                       # miss rate for ReadSharedReq accesses
system.l2cache.ReadSharedReq_miss_rate::total     0.574257                       # miss rate for ReadSharedReq accesses
system.l2cache.ReadSharedReq_avg_miss_latency::.cpu.inst 67743.673469                       # average ReadSharedReq miss latency
system.l2cache.ReadSharedReq_avg_miss_latency::.cpu.data 67256.692913                       # average ReadSharedReq miss latency
system.l2cache.ReadSharedReq_avg_miss_latency::.cpu.dcache.prefetcher 67457.764706                       # average ReadSharedReq miss latency
system.l2cache.ReadSharedReq_avg_miss_latency::total 67567.399015                       # average ReadSharedReq miss latency
system.l2cache.ReadSharedReq_mshr_misses::.cpu.inst          245                       # number of ReadSharedReq MSHR misses
system.l2cache.ReadSharedReq_mshr_misses::.cpu.data          127                       # number of ReadSharedReq MSHR misses
system.l2cache.ReadSharedReq_mshr_misses::.cpu.dcache.prefetcher           34                       # number of ReadSharedReq MSHR misses
system.l2cache.ReadSharedReq_mshr_misses::total          406                       # number of ReadSharedReq MSHR misses
system.l2cache.ReadSharedReq_mshr_miss_latency::.cpu.inst     14637200                       # number of ReadSharedReq MSHR miss cycles
system.l2cache.ReadSharedReq_mshr_miss_latency::.cpu.data      7525600                       # number of ReadSharedReq MSHR miss cycles
system.l2cache.ReadSharedReq_mshr_miss_latency::.cpu.dcache.prefetcher      2021564                       # number of ReadSharedReq MSHR miss cycles
system.l2cache.ReadSharedReq_mshr_miss_latency::total     24184364                       # number of ReadSharedReq MSHR miss cycles
system.l2cache.ReadSharedReq_mshr_miss_rate::.cpu.inst     0.567130                       # mshr miss rate for ReadSharedReq accesses
system.l2cache.ReadSharedReq_mshr_miss_rate::.cpu.data     0.545064                       # mshr miss rate for ReadSharedReq accesses
system.l2cache.ReadSharedReq_mshr_miss_rate::.cpu.dcache.prefetcher     0.809524                       # mshr miss rate for ReadSharedReq accesses
system.l2cache.ReadSharedReq_mshr_miss_rate::total     0.574257                       # mshr miss rate for ReadSharedReq accesses
system.l2cache.ReadSharedReq_avg_mshr_miss_latency::.cpu.inst 59743.673469                       # average ReadSharedReq mshr miss latency
system.l2cache.ReadSharedReq_avg_mshr_miss_latency::.cpu.data 59256.692913                       # average ReadSharedReq mshr miss latency
system.l2cache.ReadSharedReq_avg_mshr_miss_latency::.cpu.dcache.prefetcher 59457.764706                       # average ReadSharedReq mshr miss latency
system.l2cache.ReadSharedReq_avg_mshr_miss_latency::total 59567.399015                       # average ReadSharedReq mshr miss latency
system.l2cache.prefetcher.pwrStateResidencyTicks::UNDEFINED     27252000                       # Cumulative time (in ticks) in various power states
system.l2cache.tags.pwrStateResidencyTicks::UNDEFINED     27252000                       # Cumulative time (in ticks) in various power states
system.l2cache.tags.tagsinuse                    4096                       # Cycle average of tags in use
system.l2cache.tags.total_refs                  18868                       # Total number of references to valid blocks.
system.l2cache.tags.sampled_refs                 4525                       # Sample count of references to valid blocks.
system.l2cache.tags.avg_refs                 4.169724                       # Average number of references to valid blocks.
system.l2cache.tags.warmup_cycle                    0                       # Cycle when the warmup percentage was hit.
system.l2cache.tags.occ_blocks::.writebacks    40.728563                       # Average occupied blocks per requestor
system.l2cache.tags.occ_blocks::.cpu.inst  1254.007211                       # Average occupied blocks per requestor
system.l2cache.tags.occ_blocks::.cpu.data  1795.764302                       # Average occupied blocks per requestor
system.l2cache.tags.occ_blocks::.cpu.dcache.prefetcher   897.733551                       # Average occupied blocks per requestor
system.l2cache.tags.occ_blocks::.l2cache.prefetcher   107.766373                       # Average occupied blocks per requestor
system.l2cache.tags.occ_percent::.writebacks     0.009943                       # Average percentage of cache occupancy
system.l2cache.tags.occ_percent::.cpu.inst     0.306154                       # Average percentage of cache occupancy
system.l2cache.tags.occ_percent::.cpu.data     0.438419                       # Average percentage of cache occupancy
system.l2cache.tags.occ_percent::.cpu.dcache.prefetcher     0.219173                       # Average percentage of cache occupancy
system.l2cache.tags.occ_percent::.l2cache.prefetcher     0.026310                       # Average percentage of cache occupancy
system.l2cache.tags.occ_percent::total              1                       # Average percentage of cache occupancy
system.l2cache.tags.occ_task_id_blocks::1022          947                       # Occupied blocks per task id
system.l2cache.tags.occ_task_id_blocks::1024         3149                       # Occupied blocks per task id
system.l2cache.tags.age_task_id_blocks_1022::0           10                       # Occupied blocks per task id
system.l2cache.tags.age_task_id_blocks_1022::1           28                       # Occupied blocks per task id
system.l2cache.tags.age_task_id_blocks_1022::4          909                       # Occupied blocks per task id
system.l2cache.tags.age_task_id_blocks_1024::0          175                       # Occupied blocks per task id
system.l2cache.tags.age_task_id_blocks_1024::1          219                       # Occupied blocks per task id
system.l2cache.tags.age_task_id_blocks_1024::3            3                       # Occupied blocks per task id
system.l2cache.tags.age_task_id_blocks_1024::4         2752                       # Occupied blocks per task id
system.l2cache.tags.occ_task_id_percent::1022     0.231201                       # Percentage of cache occupancy per task id
system.l2cache.tags.occ_task_id_percent::1024     0.768799                       # Percentage of cache occupancy per task id
system.l2cache.tags.tag_accesses                11885                       # Number of tag accesses
system.l2cache.tags.data_accesses               11885                       # Number of data accesses
system.mem_ctrl.pwrStateResidencyTicks::UNDEFINED     27252000                       # Cumulative time (in ticks) in various power states
system.mem_ctrl.bytes_read::.cpu.inst           15680                       # Number of bytes read from this memory
system.mem_ctrl.bytes_read::.cpu.data            8512                       # Number of bytes read from this memory
system.mem_ctrl.bytes_read::.cpu.dcache.prefetcher         2176                       # Number of bytes read from this memory
system.mem_ctrl.bytes_read::.l2cache.prefetcher          192                       # Number of bytes read from this memory
system.mem_ctrl.bytes_read::total               26560                       # Number of bytes read from this memory
system.mem_ctrl.bytes_inst_read::.cpu.inst        15680                       # Number of instructions bytes read from this memory
system.mem_ctrl.bytes_inst_read::total          15680                       # Number of instructions bytes read from this memory
system.mem_ctrl.bytes_written::.writebacks         1984                       # Number of bytes written to this memory
system.mem_ctrl.bytes_written::total             1984                       # Number of bytes written to this memory
system.mem_ctrl.num_reads::.cpu.inst              245                       # Number of read requests responded to by this memory
system.mem_ctrl.num_reads::.cpu.data              133                       # Number of read requests responded to by this memory
system.mem_ctrl.num_reads::.cpu.dcache.prefetcher           34                       # Number of read requests responded to by this memory
system.mem_ctrl.num_reads::.l2cache.prefetcher            3                       # Number of read requests responded to by this memory
system.mem_ctrl.num_reads::total                  415                       # Number of read requests responded to by this memory
system.mem_ctrl.num_writes::.writebacks            31                       # Number of write requests responded to by this memory
system.mem_ctrl.num_writes::total                  31                       # Number of write requests responded to by this memory
system.mem_ctrl.bw_read::.cpu.inst          575370615                       # Total read bandwidth from this memory (bytes/s)
system.mem_ctrl.bw_read::.cpu.data          312344048                       # Total read bandwidth from this memory (bytes/s)
system.mem_ctrl.bw_read::.cpu.dcache.prefetcher     79847351                       # Total read bandwidth from this memory (bytes/s)
system.mem_ctrl.bw_read::.l2cache.prefetcher      7045354                       # Total read bandwidth from this memory (bytes/s)
system.mem_ctrl.bw_read::total              974607368                       # Total read bandwidth from this memory (bytes/s)
system.mem_ctrl.bw_inst_read::.cpu.inst     575370615                       # Instruction read bandwidth from this memory (bytes/s)
system.mem_ctrl.bw_inst_read::total         575370615                       # Instruction read bandwidth from this memory (bytes/s)
system.mem_ctrl.bw_write::.writebacks        72801996                       # Write bandwidth from this memory (bytes/s)
system.mem_ctrl.bw_write::total              72801996                       # Write bandwidth from this memory (bytes/s)
system.mem_ctrl.bw_total::.writebacks        72801996                       # Total bandwidth to/from this memory (bytes/s)
system.mem_ctrl.bw_total::.cpu.inst         575370615                       # Total bandwidth to/from this memory (bytes/s)
system.mem_ctrl.bw_total::.cpu.data         312344048                       # Total bandwidth to/from this memory (bytes/s)
system.mem_ctrl.bw_total::.cpu.dcache.prefetcher     79847351                       # Total bandwidth to/from this memory (bytes/s)
system.mem_ctrl.bw_total::.l2cache.prefetcher      7045354                       # Total bandwidth to/from this memory (bytes/s)
system.mem_ctrl.bw_total::total            1047409364                       # Total bandwidth to/from this memory (bytes/s)

---------- End Simulation Statistics   ----------
